Auto-Transcript Start Time:  15:45:58, 16 Oct 2024 Romance Daylight Time 
Current Directory: "C:\Users\alber\OneDrive - Danmarks Tekniske Universitet\Documents\CFD\barotropy\projects\Simoneau_Hendricks_1979\automate_simulations"

              Welcome to ANSYS Fluent 2024 R2

              Copyright 1987-2024 ANSYS, Inc. All Rights Reserved.
              Unauthorized use, distribution or duplication is prohibited.
              This product is subject to U.S. laws governing export and re-export.
              For full Legal Notice, see documentation.

Build Time: May 13 2024 11:28:30 EST  Build Id: 10192  
 
Connected License Server List:	1055@ansys-ls.mbar.dtu.dk

     --------------------------------------------------------------
     This is an academic version of ANSYS FLUENT. Usage of this product
     license is limited to the terms and conditions specified in your ANSYS
     license form, additional terms section.
     --------------------------------------------------------------
Host spawning Node 0 on machine "CME-EL-ALBER1" (win64).

------------------------------------------------------------------------------------------
ID    Hostname       Core   O.S.         PID    Vendor                                   
------------------------------------------------------------------------------------------
n9    CME-EL-ALBER1  10/28  Windows-x64  30452  13th Gen Intel(R) Core(TM) i7-13850HX    
n8    CME-EL-ALBER1  9/28   Windows-x64  27016  13th Gen Intel(R) Core(TM) i7-13850HX    
n7    CME-EL-ALBER1  8/28   Windows-x64  4596   13th Gen Intel(R) Core(TM) i7-13850HX    
n6    CME-EL-ALBER1  7/28   Windows-x64  14284  13th Gen Intel(R) Core(TM) i7-13850HX    
n5    CME-EL-ALBER1  6/28   Windows-x64  27148  13th Gen Intel(R) Core(TM) i7-13850HX    
n4    CME-EL-ALBER1  5/28   Windows-x64  10568  13th Gen Intel(R) Core(TM) i7-13850HX    
n3    CME-EL-ALBER1  4/28   Windows-x64  15496  13th Gen Intel(R) Core(TM) i7-13850HX    
n2    CME-EL-ALBER1  3/28   Windows-x64  9088   13th Gen Intel(R) Core(TM) i7-13850HX    
n1    CME-EL-ALBER1  2/28   Windows-x64  3136   13th Gen Intel(R) Core(TM) i7-13850HX    
n0*   CME-EL-ALBER1  1/28   Windows-x64  17588  13th Gen Intel(R) Core(TM) i7-13850HX    
host  CME-EL-ALBER1         Windows-x64  23556  13th Gen Intel(R) Core(TM) i7-13850HX    

MPI Option Selected: intel
Selected system interconnect: default
------------------------------------------------------------------------------------------

Cleanup script file is C:\\Users\\alber\\OneDrive - Danmarks Tekniske Universitet\\Documents\\CFD\\barotropy\\projects\\Simoneau_Hendricks_1979\\automate_simulations\\cleanup-fluent-CME-EL-ALBER1-23556.bat

Posting ANSYS Product Improvement Program startup data
Done.

> (cx-gui-do cx-activate-item "MenuBar*ReadSubMenu*Case...")
(cx-gui-do cx-set-file-dialog-entries "Select File" '( "template_simoneau_hendricks_1979_barotropic.cas.h5") "CFF Case Files (*.cas.h5 *.msh.h5 *.MSH.h5 )")
Fast-loading "C:\PROGRA~1\ANSYSI~1\v242\fluent\fluent24.2.0\\addons\afd\lib\hdfio.bin"
Done.
Note: Rank = 0: Process affinity not being set (6).
Note: Rank = 1: Process affinity not being set (6).
Note: Rank = 2: Process affinity not being set (6).
Note: Rank = 3: Process affinity not being set (6).
Note: Rank = 4: Process affinity not being set (6).
Note: Rank = 5: Process affinity not being set (6).
Note: Rank = 6: Process affinity not being set (6).
Note: Rank = 7: Process affinity not being set (6).
Note: Rank = 8: Process affinity not being set (6).
Note: Rank = 9: Process affinity not being set (6).

Reading from CME-EL-ALBER1:"C:/Users/alber/OneDrive - Danmarks Tekniske Universitet/Documents/CFD/barotropy/projects/Simoneau_Hendricks_1979/automate_simulations/template_simoneau_hendricks_1979_barotropic.cas.h5" in NODE0 mode ...
  Reading mesh ...
       77319 cells,     1 cell zone  ...
          77319 quadrilateral cells,  zone id: 17
      155518 faces,     5 face zones ...
         153758 2D interior faces,  zone id: 10
             99 2D pressure-inlet faces,  zone id: 11
             99 2D pressure-outlet faces,  zone id: 12
            781 2D axis faces,  zone id: 13
            781 2D wall faces,  zone id: 14
       78200 nodes,     1 node zone  ...
  Done.


Building...
     mesh
	distributing mesh
		parts..........,
		faces..........,
		nodes..........,
		cells..........,
        bandwidth reduction using Reverse Cuthill-McKee: 99/86 = 1.15116
     materials,
     interface,
     domains,
	mixture
     zones,
	wall
	axis
	outlet
	inlet
	int_solid
	fld
     parallel,
Done.
(cx-gui-do cx-set-list-tree-selections "NavigationPane*Frame2*Table1*List_Tree2" (list "Setup|Boundary Conditions|Inlet|inlet (pressure-inlet, id=11)"))
(cx-gui-do cx-set-list-tree-selections "NavigationPane*Frame2*Table1*List_Tree2" (list "Setup|Boundary Conditions|Inlet|inlet (pressure-inlet, id=11)"))
(cx-gui-do cx-set-list-tree-selections "NavigationPane*Frame2*Table1*List_Tree2" (list "Setup|Boundary Conditions|Inlet|inlet (pressure-inlet, id=11)"))
(cx-gui-do cx-set-list-tree-selections "NavigationPane*Frame2*Table1*List_Tree2" (list "Setup|Boundary Conditions|Inlet|inlet (pressure-inlet, id=11)"))
(cx-gui-do cx-activate-item "NavigationPane*Frame2*Table1*List_Tree2")
(cx-gui-do cx-set-list-tree-selections "NavigationPane*Frame2*Table1*List_Tree2" (list "Setup|Boundary Conditions|Inlet|inlet (pressure-inlet, id=11)"))
(cx-gui-do cx-activate-tab-index "Pressure Inlet*Frame2*Frame2" 0)
(cx-gui-do cx-activate-tab-index "Pressure Inlet*Frame2*Frame2" 1)
(cx-gui-do cx-activate-tab-index "Pressure Inlet*Frame2*Frame2" 0)
(cx-gui-do cx-activate-tab-index "Pressure Inlet*Frame2*Frame2" 2)
(cx-gui-do cx-activate-tab-index "Pressure Inlet*Frame2*Frame2" 0)
(cx-gui-do cx-activate-tab-index "Pressure Inlet*Frame2*Frame2" 3)
(cx-gui-do cx-activate-tab-index "Pressure Inlet*Frame2*Frame2" 0)
(cx-gui-do cx-activate-tab-index "Pressure Inlet*Frame2*Frame2" 4)
(cx-gui-do cx-activate-tab-index "Pressure Inlet*Frame2*Frame2" 0)
(cx-gui-do cx-activate-tab-index "Pressure Inlet*Frame2*Frame2" 5)
(cx-gui-do cx-activate-tab-index "Pressure Inlet*Frame2*Frame2" 0)
(cx-gui-do cx-activate-tab-index "Pressure Inlet*Frame2*Frame2" 6)
(cx-gui-do cx-activate-tab-index "Pressure Inlet*Frame2*Frame2" 0)
(cx-gui-do cx-activate-tab-index "Pressure Inlet*Frame2*Frame2" 7)
(cx-gui-do cx-activate-tab-index "Pressure Inlet*Frame2*Frame2" 0)
(cx-gui-do cx-activate-tab-index "Pressure Inlet*Frame2*Frame2" 8)
(cx-gui-do cx-activate-tab-index "Pressure Inlet*Frame2*Frame2" 0)
(cx-gui-do cx-activate-item "Pressure Inlet*PanelButtons*PushButton2(Cancel)")
(cx-gui-do cx-set-list-tree-selections "NavigationPane*Frame2*Table1*List_Tree2" (list "Setup|Named Expressions"))
(cx-gui-do cx-set-list-tree-selections "NavigationPane*Frame2*Table1*List_Tree2" (list "Setup|Named Expressions"))
(cx-gui-do cx-activate-item "NavigationPane*Frame2*Table1*List_Tree2")
(cx-gui-do cx-set-list-tree-selections "NavigationPane*Frame2*Table1*List_Tree2" (list "Setup|Named Expressions"))
(cx-gui-do cx-activate-item "Expression Manager*PanelButtons*PushButton1(Close)")
(cx-gui-do cx-set-list-tree-selections "NavigationPane*Frame2*Table1*List_Tree2" (list "Setup|Boundary Conditions|Outlet|outlet (pressure-outlet, id=12)"))
(cx-gui-do cx-set-list-tree-selections "NavigationPane*Frame2*Table1*List_Tree2" (list "Setup|Boundary Conditions|Outlet|outlet (pressure-outlet, id=12)"))
(cx-gui-do cx-activate-item "NavigationPane*Frame2*Table1*List_Tree2")
(cx-gui-do cx-set-list-tree-selections "NavigationPane*Frame2*Table1*List_Tree2" (list "Setup|Boundary Conditions|Outlet|outlet (pressure-outlet, id=12)"))
(cx-gui-do cx-activate-tab-index "Pressure Outlet*Frame2*Frame2" 0)
(cx-gui-do cx-activate-tab-index "Pressure Outlet*Frame2*Frame2" 1)
(cx-gui-do cx-activate-tab-index "Pressure Outlet*Frame2*Frame2" 0)
(cx-gui-do cx-activate-tab-index "Pressure Outlet*Frame2*Frame2" 2)
(cx-gui-do cx-activate-tab-index "Pressure Outlet*Frame2*Frame2" 0)
(cx-gui-do cx-activate-tab-index "Pressure Outlet*Frame2*Frame2" 3)
(cx-gui-do cx-activate-tab-index "Pressure Outlet*Frame2*Frame2" 0)
(cx-gui-do cx-activate-tab-index "Pressure Outlet*Frame2*Frame2" 4)
(cx-gui-do cx-activate-tab-index "Pressure Outlet*Frame2*Frame2" 0)
(cx-gui-do cx-activate-tab-index "Pressure Outlet*Frame2*Frame2" 5)
(cx-gui-do cx-activate-tab-index "Pressure Outlet*Frame2*Frame2" 0)
(cx-gui-do cx-activate-tab-index "Pressure Outlet*Frame2*Frame2" 6)
(cx-gui-do cx-activate-tab-index "Pressure Outlet*Frame2*Frame2" 0)
(cx-gui-do cx-activate-tab-index "Pressure Outlet*Frame2*Frame2" 7)
(cx-gui-do cx-activate-tab-index "Pressure Outlet*Frame2*Frame2" 0)
(cx-gui-do cx-activate-tab-index "Pressure Outlet*Frame2*Frame2" 8)
(cx-gui-do cx-activate-tab-index "Pressure Outlet*Frame2*Frame2" 0)
(cx-gui-do cx-activate-item "Pressure Outlet*PanelButtons*PushButton2(Cancel)")
(cx-gui-do cx-set-list-tree-selections "NavigationPane*Frame2*Table1*List_Tree2" (list "Setup|Named Expressions|rhomass_barotropic"))
(cx-gui-do cx-set-list-tree-selections "NavigationPane*Frame2*Table1*List_Tree2" (list "Setup|Named Expressions|rhomass_barotropic"))
(cx-gui-do cx-activate-item "NavigationPane*Frame2*Table1*List_Tree2")
(cx-gui-do cx-set-list-tree-selections "NavigationPane*Frame2*Table1*List_Tree2" (list "Setup|Named Expressions|rhomass_barotropic"))
(cx-gui-do cx-activate-tab-index "Expression*Table1*Frame1" 0)
(cx-gui-do cx-activate-tab-index "Expression*Table1*Frame1" 1)
(cx-gui-do cx-activate-tab-index "Expression*Table1*Frame1" 0)
(cx-gui-do cx-set-expression-entry "Expression*Table1*ExpressionEntry3(Definition)" '("IF(AbsolutePressure >= 3.9200002887589997e+06 [Pa],  5.1115565177555629e+02 + 4.2203083509694920e+01 * (AbsolutePressure / 3.9200002887589997e+06 [Pa] - 1.0000000000000000e+00),  IF(AbsolutePressure >= 1.9000000000000000e+05 [Pa],  IF(AbsolutePressure >= 2.5075222732414827e+06 [Pa],  IF(AbsolutePressure >= 2.5798512507885122e+06 [Pa],  4.6895256826586137e+02 + (AbsolutePressure / 3.9200002887589997e+06 [Pa]) * (4.2203083509694920e+01),  -2.7937073658982170e+08 + (AbsolutePressure / 3.9200002887589997e+06 [Pa]) * (2.2177150415666552e+09 + (AbsolutePressure / 3.9200002887589997e+06 [Pa]) * (-7.0244476608076916e+09 + (AbsolutePressure / 3.9200002887589997e+06 [Pa]) * (1.1098948666485916e+10 + (AbsolutePressure / 3.9200002887589997e+06 [Pa]) * (-8.7493657214777851e+09 + (AbsolutePressure / 3.9200002887589997e+06 [Pa]) * (2.7532175867347755e+09)))))),  1.1684899005554996e+00 + (AbsolutePressure / 3.9200002887589997e+06 [Pa]) * (3.9778491650541957e+02 + (AbsolutePressure / 3.9200002887589997e+06 [Pa]) * (5.2946380199380314e+01 + (AbsolutePressure / 3.9200002887589997e+06 [Pa]) * (1.5366035247149912e+03 + (AbsolutePressure / 3.9200002887589997e+06 [Pa]) * (-4.8495035293715819e+03 + (AbsolutePressure / 3.9200002887589997e+06 [Pa]) * (1.1297024962909230e+04 + (AbsolutePressure / 3.9200002887589997e+06 [Pa]) * (-1.5517352008016178e+04 + (AbsolutePressure / 3.9200002887589997e+06 [Pa]) * (1.1884648954462285e+04 + (AbsolutePressure / 3.9200002887589997e+06 [Pa]) * (-3.8044271105308721e+03))))))))),  2.0724299277822283e+01 * exp((AbsolutePressure / 3.9200002887589997e+06 [Pa] - 0.0484693841847013) / 5.0322913608489873e-02))) * 1 [kg/m^3]" . 1))
(cx-gui-do cx-activate-item "Expression*PanelButtons*PushButton2(Cancel)")
(cx-gui-do cx-set-list-tree-selections "NavigationPane*Frame2*Table1*List_Tree2" (list "Solution|Initialization"))
(cx-gui-do cx-set-list-tree-selections "NavigationPane*Frame2*Table1*List_Tree2" (list "Solution|Initialization"))
(cx-gui-do cx-activate-item "NavigationPane*Frame2*Table1*List_Tree2")
(cx-gui-do cx-set-list-tree-selections "NavigationPane*Frame2*Table1*List_Tree2" (list "Solution|Initialization"))
(cx-gui-do cx-activate-item "Solution Initialization*Table1*Frame9*PushButton1(Initialize)")
(cx-gui-do cx-set-toggle-button2 "Solution Initialization*Table1*ToggleBox3(Initialization Methods)*Hybrid  Initialization" #t)
(cx-gui-do cx-activate-item "Solution Initialization*Table1*ToggleBox3(Initialization Methods)*Hybrid  Initialization")
(cx-gui-do cx-activate-item "Solution Initialization*Table1*Frame12*PushButton2(Initialize)")
(cx-gui-do cx-activate-item "Question*OK")

Initialize using the hybrid initialization method.

Checking case topology... 
-This case has both inlets & outlets 
-Pressure information is available at the boundaries

	iter		scalar-0		scalar-1

	1		1.000000e+00	1.000000e+00
	2		6.425070e-07	2.274624e-06
	3		1.491688e-07	3.792476e-07
	4		9.823515e-08	3.184100e-07
	5		7.469000e-08	8.714427e-08
	6		5.918178e-08	4.997110e-08
	7		4.806029e-08	1.805788e-08
	8		3.973645e-08	8.161456e-09
	9		3.331130e-08	4.959479e-09
	10		2.823558e-08	3.105998e-09

Hybrid initialization is done.
(cx-gui-do cx-set-list-tree-selections "NavigationPane*Frame2*Table1*List_Tree2" (list "Solution|Run Calculation"))
(cx-gui-do cx-set-list-tree-selections "NavigationPane*Frame2*Table1*List_Tree2" (list "Solution|Run Calculation"))
(cx-gui-do cx-activate-item "NavigationPane*Frame2*Table1*List_Tree2")
(cx-gui-do cx-set-list-tree-selections "NavigationPane*Frame2*Table1*List_Tree2" (list "Solution|Run Calculation"))
(cx-gui-do cx-set-integer-entry "Run Calculation*Table1*Table3(Parameters)*Table1*Table1*IntegerEntry1(Number of Iterations)" 10000)
(cx-gui-do cx-activate-item "Run Calculation*Table1*Table3(Parameters)*Table1*Table1*IntegerEntry1(Number of Iterations)")
(cx-gui-do cx-activate-item "Run Calculation*Table1*Table6(Solution Advancement)*Table1*PushButton1(Calculate)")


  iter  continuity  x-velocity  y-velocity           k       omega  mass-balan     mass_in  pressure_m     time/iter
!    1 residual normalization factors changed (continuity x-velocity y-velocity k omega)
!    1 residual normalization factors changed (continuity x-velocity y-velocity k omega)
     1  1.0000e+00  1.0000e+00  1.0000e+00  1.0000e+00  1.0000e+00  3.5704e+00  3.7161e+00  3.8014e+05  0:00:00 9999
     2  7.1505e-01  9.7468e-01  6.6834e-01  5.6369e-01  8.8843e-01  3.5727e+00  3.7327e+00  3.8014e+05  2:46:38 9998
     3  6.8615e-01  9.3800e-01  5.2948e-01  3.7408e-01  7.2124e-01  3.5511e+00  3.7241e+00  3.8015e+05  2:13:18 9997
     4  6.7959e-01  9.3078e-01  4.8523e-01  2.3793e-01  5.8433e-01  3.5098e+00  3.6946e+00  3.8015e+05  1:46:37 9996
     5  6.8246e-01  9.4053e-01  4.8320e-01  1.4798e-01  4.6978e-01  3.4543e+00  3.6500e+00  3.8015e+05  1:25:17 9995
     6  7.0263e-01  9.6444e-01  4.9995e-01  9.9771e-02  3.8091e-01  3.3860e+00  3.5917e+00  3.8015e+05  1:08:14 9994
     7  7.3020e-01  9.9669e-01  5.1780e-01  7.4473e-02  3.1462e-01  3.3043e+00  3.5194e+00  3.8015e+05  0:54:35 9993
     8  7.5787e-01  1.0324e+00  5.3798e-01  5.9769e-02  2.6414e-01  3.2071e+00  3.4311e+00  3.8015e+05  0:43:39 9992
     9  7.8518e-01  1.0642e+00  5.6149e-01  4.9626e-02  2.2569e-01  3.0928e+00  3.3254e+00  3.8015e+05  0:34:55 9991
    10  8.1321e-01  1.0967e+00  5.8616e-01  4.2044e-02  1.9556e-01  2.9591e+00  3.1999e+00  3.8015e+05  1:01:14 9990
    11  8.4463e-01  1.1247e+00  6.0417e-01  3.6117e-02  1.7218e-01  2.8035e+00  3.0524e+00  3.8016e+05  0:48:59 9989

  iter  continuity  x-velocity  y-velocity           k       omega  mass-balan     mass_in  pressure_m     time/iter
    12  8.7525e-01  1.1468e+00  6.1377e-01  3.1276e-02  1.5360e-01  2.6237e+00  2.8806e+00  3.8016e+05  0:39:11 9988
    13  9.0273e-01  1.1617e+00  6.1601e-01  2.7315e-02  1.3907e-01  2.4177e+00  2.6825e+00  3.8016e+05  0:31:21 9987
    14  9.2545e-01  1.1695e+00  6.1240e-01  2.3782e-02  1.2634e-01  2.1841e+00  2.4567e+00  3.8016e+05  0:25:04 9986
    15  9.4176e-01  1.1710e+00  6.0746e-01  2.0782e-02  1.1607e-01  1.9216e+00  2.2021e+00  3.8016e+05  0:20:03 9985
    16  9.5295e-01  1.1652e+00  6.0388e-01  1.8237e-02  1.0716e-01  1.6297e+00  1.9180e+00  3.8016e+05  0:16:03 9984
    17  9.5248e-01  1.1533e+00  5.9917e-01  1.6089e-02  9.9121e-02  1.3088e+00  1.6050e+00  3.8016e+05  0:12:50 9983
    18  9.5823e-01  1.1339e+00  5.9513e-01  1.4347e-02  9.1765e-02  9.5913e-01  1.2631e+00  3.8016e+05  0:10:16 9982
    19  9.5987e-01  1.1082e+00  5.8902e-01  1.2956e-02  8.4955e-02  5.7751e-01  8.8939e-01  3.8016e+05  0:41:29 9981
    20  9.5904e-01  1.0770e+00  5.7702e-01  1.1868e-02  7.8688e-02  1.6152e-01  4.8131e-01  3.8016e+05  0:33:11 9980
    21  9.6411e-01  1.0403e+00  5.5984e-01  1.1046e-02  7.2127e-02 -2.9964e-01  2.8096e-02  3.8016e+05  0:26:33 9979

 Reversed flow on 38 faces (39.5% area) of pressure-inlet 11.
    22  9.5960e-01  9.9619e-01  5.3770e-01  1.0407e-02  6.5374e-02 -7.8215e-01 -4.4645e-01  3.8015e+05  0:21:14 9978

 Reversed flow on 99 faces (100.0% area) of pressure-inlet 11.

  iter  continuity  x-velocity  y-velocity           k       omega  mass-balan     mass_in  pressure_m     time/iter
    23  9.8688e-01  9.4575e-01  5.1216e-01  9.8861e-03  5.9665e-02 -1.1110e+00 -7.6730e-01  3.8015e+05  0:16:59 9977

 Reversed flow on 99 faces (100.0% area) of pressure-inlet 11.
    24  9.8458e-01  8.9412e-01  4.9078e-01  9.4475e-03  5.4815e-02 -1.3049e+00 -9.5318e-01  3.8015e+05  0:13:35 9976

 Reversed flow on 99 faces (100.0% area) of pressure-inlet 11.
    25  9.9373e-01  8.4289e-01  4.7363e-01  9.0710e-03  5.0721e-02 -1.4367e+00 -1.0769e+00  3.8015e+05  0:10:52 9975

 Reversed flow on 99 faces (100.0% area) of pressure-inlet 11.
    26  1.0053e+00  7.9211e-01  4.5715e-01  8.7409e-03  4.7262e-02 -1.5387e+00 -1.1708e+00  3.8015e+05  0:41:56 9974

 Reversed flow on 99 faces (100.0% area) of pressure-inlet 11.
    27  1.0196e+00  7.3912e-01  4.3711e-01  8.4421e-03  4.4290e-02 -1.6221e+00 -1.2462e+00  3.8015e+05  0:33:33 9973

 Reversed flow on 99 faces (100.0% area) of pressure-inlet 11.
    28  1.0345e+00  6.8728e-01  4.1445e-01  8.1765e-03  4.1769e-02 -1.6910e+00 -1.3070e+00  3.8015e+05  0:26:50 9972

 Reversed flow on 99 faces (100.0% area) of pressure-inlet 11.
    29  1.0461e+00  6.3787e-01  3.9138e-01  7.9442e-03  3.9594e-02 -1.7497e+00 -1.3578e+00  3.8015e+05  0:21:28 9971

 Reversed flow on 99 faces (100.0% area) of pressure-inlet 11.
    30  1.0562e+00  5.9122e-01  3.6692e-01  7.7402e-03  3.7697e-02 -1.7963e+00 -1.3962e+00  3.6869e+05  0:17:10 9970

 Reversed flow on 99 faces (100.0% area) of pressure-inlet 11.
    31  1.0645e+00  5.4722e-01  3.4223e-01  7.5612e-03  3.6049e-02 -1.8302e+00 -1.4221e+00  3.5139e+05  0:13:44 9969

 Reversed flow on 99 faces (100.0% area) of pressure-inlet 11.
    32  1.0708e+00  5.0585e-01  3.1782e-01  7.4036e-03  3.4579e-02 -1.8509e+00 -1.4349e+00  3.3293e+05  0:44:13 9968

 Reversed flow on 99 faces (100.0% area) of pressure-inlet 11.
    33  1.0748e+00  4.6697e-01  2.9414e-01  7.2634e-03  3.3258e-02 -1.8581e+00 -1.4339e+00  3.1779e+05  0:35:22 9967

 Reversed flow on 99 faces (100.0% area) of pressure-inlet 11.

  iter  continuity  x-velocity  y-velocity           k       omega  mass-balan     mass_in  pressure_m     time/iter
    34  1.0765e+00  4.3038e-01  2.7190e-01  7.1387e-03  3.2097e-02 -1.8512e+00 -1.4190e+00  3.0539e+05  0:28:17 9966

 Reversed flow on 99 faces (100.0% area) of pressure-inlet 11.
    35  1.0764e+00  3.9619e-01  2.5133e-01  7.0237e-03  3.1040e-02 -1.8303e+00 -1.3900e+00  2.9503e+05  0:22:38 9965

 Reversed flow on 99 faces (100.0% area) of pressure-inlet 11.
    36  1.0740e+00  3.6419e-01  2.3358e-01  6.9180e-03  3.0062e-02 -1.7952e+00 -1.3468e+00  2.8601e+05  0:18:06 9964

 Reversed flow on 99 faces (100.0% area) of pressure-inlet 11.
    37  1.0694e+00  3.3418e-01  2.1891e-01  6.7522e-03  2.8842e-02 -1.7554e+00 -1.2989e+00  2.7705e+05  0:14:29 9963

 Reversed flow on 99 faces (100.0% area) of pressure-inlet 11.
    38  1.0679e+00  3.0909e-01  2.0642e-01  6.6816e-03  2.8211e-02 -1.6966e+00 -1.2320e+00  2.6823e+05  0:11:35 9962

 Reversed flow on 99 faces (100.0% area) of pressure-inlet 11.
    39  1.0561e+00  2.8839e-01  1.9962e-01  6.5321e-03  2.7042e-02 -1.6335e+00 -1.1607e+00  2.5903e+05  0:09:16 9961

 Reversed flow on 99 faces (100.0% area) of pressure-inlet 11.
    40  1.0497e+00  2.8451e-01  1.9241e-01  6.4156e-03  2.6196e-02 -1.5631e+00 -1.0820e+00  2.4983e+05  0:40:37 9960

 Reversed flow on 99 faces (100.0% area) of pressure-inlet 11.
    41  1.0403e+00  2.9857e-01  1.9183e-01  6.3012e-03  2.5425e-02 -1.4738e+00 -9.8447e-01  2.4083e+05  0:32:29 9959

 Reversed flow on 99 faces (100.0% area) of pressure-inlet 11.
    42  1.0277e+00  3.1163e-01  1.9962e-01  6.1940e-03  2.4707e-02 -1.3805e+00 -8.8290e-01  2.3230e+05  0:25:59 9958

 Reversed flow on 99 faces (100.0% area) of pressure-inlet 11.
    43  1.0133e+00  3.2304e-01  2.0951e-01  6.0932e-03  2.4045e-02 -1.2798e+00 -7.7384e-01  2.2413e+05  0:20:47 9957

 Reversed flow on 99 faces (100.0% area) of pressure-inlet 11.
    44  9.9701e-01  3.3303e-01  2.1854e-01  6.0002e-03  2.3498e-02 -1.1704e+00 -6.5611e-01  2.1624e+05  0:16:38 9956

 Reversed flow on 99 faces (100.0% area) of pressure-inlet 11.

  iter  continuity  x-velocity  y-velocity           k       omega  mass-balan     mass_in  pressure_m     time/iter
    45  9.7895e-01  3.4137e-01  2.2678e-01  5.9123e-03  2.2989e-02 -1.0560e+00 -5.3327e-01  2.0867e+05  0:13:18 9955

 Reversed flow on 99 faces (100.0% area) of pressure-inlet 11.
    46  9.6019e-01  3.4802e-01  2.3396e-01  5.8298e-03  2.2526e-02 -9.3704e-01 -4.0585e-01  2.0143e+05  0:10:38 9954

 Reversed flow on 99 faces (100.0% area) of pressure-inlet 11.
    47  9.4085e-01  3.5308e-01  2.4008e-01  5.7472e-03  2.2091e-02 -8.1275e-01 -2.7304e-01  1.9436e+05  0:08:31 9953

 Reversed flow on 85 faces (90.0% area) of pressure-inlet 11.
    48  9.2213e-01  3.5668e-01  2.4496e-01  5.6663e-03  2.1698e-02 -6.8449e-01 -1.3620e-01  1.8792e+05  0:06:48 9952

 Reversed flow on 64 faces (70.9% area) of pressure-inlet 11.
    49  9.0351e-01  3.5873e-01  2.4857e-01  5.5854e-03  2.1339e-02 -5.5376e-01  3.1641e-03  1.8202e+05  0:38:37 9951

 Reversed flow on 46 faces (50.8% area) of pressure-inlet 11.
    50  8.8689e-01  3.5930e-01  2.5070e-01  5.5034e-03  2.0968e-02 -4.2737e-01  1.3825e-01  1.7658e+05  0:30:53 9950

 Reversed flow on 28 faces (27.1% area) of pressure-inlet 11.
    51  8.7351e-01  3.5840e-01  2.5116e-01  5.4181e-03  2.0701e-02 -3.2242e-01  2.5196e-01  1.7111e+05  0:24:43 9949

 Reversed flow on 9 faces (3.9% area) of pressure-inlet 11.
    52  8.7103e-01  3.5629e-01  2.5031e-01  5.3337e-03  2.0348e-02 -2.4646e-01  3.3674e-01  1.6586e+05  0:19:46 9948
    53  8.7228e-01  3.5319e-01  2.4816e-01  5.2470e-03  2.0014e-02 -1.9537e-01  3.9672e-01  1.6072e+05  0:15:49 9947
    54  8.7280e-01  3.4940e-01  2.4509e-01  5.1603e-03  1.9698e-02 -1.6053e-01  4.4052e-01  1.5566e+05  0:12:39 9946
    55  8.7115e-01  3.4503e-01  2.4184e-01  5.0733e-03  1.9394e-02 -1.3619e-01  4.7390e-01  1.5077e+05  0:10:07 9945

  iter  continuity  x-velocity  y-velocity           k       omega  mass-balan     mass_in  pressure_m     time/iter
    56  8.6857e-01  3.4030e-01  2.3839e-01  4.9845e-03  1.9059e-02 -1.2047e-01  4.9873e-01  1.4608e+05  0:08:06 9944
    57  8.6653e-01  3.3517e-01  2.3481e-01  4.8943e-03  1.8672e-02 -1.0767e-01  5.2071e-01  1.4133e+05  0:39:37 9943
    58  8.6416e-01  3.2986e-01  2.3089e-01  4.8039e-03  1.8252e-02 -1.0240e-01  5.3524e-01  1.3636e+05  0:31:41 9942
    59  8.5963e-01  3.2416e-01  2.2680e-01  4.7124e-03  1.7761e-02 -9.8984e-02  5.4798e-01  1.3120e+05  0:25:21 9941
    60  8.5522e-01  3.1840e-01  2.2234e-01  4.6191e-03  1.7258e-02 -9.8235e-02  5.5814e-01  1.2602e+05  0:20:17 9940
    61  8.5245e-01  3.1264e-01  2.1780e-01  4.5262e-03  1.6741e-02 -9.9317e-02  5.6655e-01  1.2076e+05  0:16:13 9939
    62  8.5250e-01  3.0685e-01  2.1295e-01  4.4342e-03  1.6238e-02 -1.0176e-01  5.7367e-01  1.1541e+05  0:12:59 9938
    63  8.5325e-01  3.0102e-01  2.0796e-01  4.3443e-03  1.5752e-02 -1.0532e-01  5.7977e-01  1.1024e+05  0:10:23 9937
    64  8.5419e-01  2.9505e-01  2.0291e-01  4.2532e-03  1.5294e-02 -1.0974e-01  5.8511e-01  1.0531e+05  0:08:18 9936
    65  8.5524e-01  2.8902e-01  1.9777e-01  4.1622e-03  1.4847e-02 -1.1489e-01  5.8980e-01  1.0049e+05  0:39:45 9935
    66  8.5605e-01  2.8292e-01  1.9255e-01  4.0746e-03  1.4403e-02 -1.2082e-01  5.9382e-01  9.5785e+04  0:31:48 9934

  iter  continuity  x-velocity  y-velocity           k       omega  mass-balan     mass_in  pressure_m     time/iter
    67  8.5667e-01  2.7678e-01  1.8729e-01  3.9941e-03  1.3988e-02 -1.2729e-01  5.9740e-01  9.1240e+04  0:25:26 9933
    68  8.5728e-01  2.7064e-01  1.8211e-01  3.9186e-03  1.3583e-02 -1.3434e-01  6.0051e-01  8.6885e+04  0:20:21 9932
    69  8.5797e-01  2.6454e-01  1.7699e-01  3.8474e-03  1.3205e-02 -1.4208e-01  6.0303e-01  8.2424e+04  0:16:17 9931
    70  8.5854e-01  2.5857e-01  1.7200e-01  3.7775e-03  1.2848e-02 -1.5055e-01  6.0496e-01  7.8266e+04  0:13:01 9930
    71  8.5884e-01  2.5303e-01  1.6719e-01  3.7088e-03  1.2515e-02 -1.5840e-01  6.0763e-01  7.4283e+04  0:43:31 9929
    72  8.5866e-01  2.4814e-01  1.6232e-01  3.6398e-03  1.2207e-02 -1.6822e-01  6.0845e-01  7.0241e+04  0:34:48 9928
    73  8.5811e-01  2.4300e-01  1.5803e-01  3.5706e-03  1.1911e-02 -1.7882e-01  6.0863e-01  6.6310e+04  0:27:51 9927
    74  8.5803e-01  2.3798e-01  1.5375e-01  3.4994e-03  1.1623e-02 -1.9030e-01  6.0808e-01  6.2453e+04  0:22:16 9926
    75  8.5807e-01  2.3303e-01  1.4930e-01  3.4256e-03  1.1342e-02 -2.0274e-01  6.0673e-01  5.8786e+04  0:17:49 9925
    76  8.5780e-01  2.2817e-01  1.4488e-01  3.3526e-03  1.1076e-02 -2.1620e-01  6.0453e-01  5.5090e+04  0:14:15 9924
    77  8.5716e-01  2.2343e-01  1.4060e-01  3.2783e-03  1.0818e-02 -2.3073e-01  6.0145e-01  5.1610e+04  0:11:24 9923

  iter  continuity  x-velocity  y-velocity           k       omega  mass-balan     mass_in  pressure_m     time/iter
    78  8.5626e-01  2.1885e-01  1.3644e-01  3.2022e-03  1.0567e-02 -2.4637e-01  5.9746e-01  4.8067e+04  0:09:07 9922
    79  8.5502e-01  2.1447e-01  1.3241e-01  3.1243e-03  1.0313e-02 -2.6313e-01  5.9257e-01  4.4732e+04  0:40:22 9921
    80  8.5360e-01  2.1027e-01  1.2841e-01  3.0467e-03  1.0044e-02 -2.8105e-01  5.8679e-01  4.1511e+04  0:32:17 9920
    81  8.5198e-01  2.0630e-01  1.2464e-01  2.9691e-03  9.7793e-03 -3.0013e-01  5.8011e-01  3.8330e+04  0:25:50 9919
    82  8.5020e-01  2.0260e-01  1.2107e-01  2.8921e-03  9.5340e-03 -3.2040e-01  5.7258e-01  3.5302e+04  0:20:40 9918
    83  8.4827e-01  1.9917e-01  1.1780e-01  2.8162e-03  9.3027e-03 -3.4185e-01  5.6422e-01  3.2409e+04  0:16:32 9917
    84  8.4621e-01  1.9610e-01  1.1533e-01  2.7430e-03  9.1057e-03 -3.6450e-01  5.5509e-01  2.9647e+04  0:13:13 9916
    85  8.4408e-01  1.9493e-01  1.1444e-01  2.6747e-03  8.9413e-03 -3.8836e-01  5.4524e-01  2.6996e+04  0:10:34 9915
    86  8.4181e-01  1.9593e-01  1.1495e-01  2.6126e-03  8.8028e-03 -4.1361e-01  5.3454e-01  2.4459e+04  0:08:28 9914
    87  8.3920e-01  1.9739e-01  1.1618e-01  2.5549e-03  8.7127e-03 -4.3996e-01  5.2339e-01  2.2040e+04  0:39:49 9913
    88  8.3648e-01  1.9879e-01  1.1768e-01  2.4984e-03  8.6289e-03 -4.6672e-01  5.1258e-01  1.9733e+04  0:31:51 9912

  iter  continuity  x-velocity  y-velocity           k       omega  mass-balan     mass_in  pressure_m     time/iter
    89  8.3400e-01  1.9982e-01  1.1947e-01  2.4439e-03  8.5990e-03 -4.9543e-01  5.0068e-01  1.7547e+04  0:25:28 9911
    90  8.3157e-01  2.0090e-01  1.2098e-01  2.3898e-03  8.5981e-03 -5.2541e-01  4.8851e-01  1.5347e+04  0:20:23 9910
    91  8.2922e-01  2.0189e-01  1.2244e-01  2.3350e-03  8.5695e-03 -5.5678e-01  4.7612e-01  1.3239e+04  0:16:18 9909
    92  8.2688e-01  2.0280e-01  1.2380e-01  2.2808e-03  8.5089e-03 -5.8958e-01  4.6363e-01  1.1240e+04  0:13:02 9908
    93  8.2440e-01  2.0364e-01  1.2503e-01  2.2270e-03  8.4122e-03 -6.2399e-01  4.5108e-01  9.2805e+03  0:10:26 9907
    94  8.2176e-01  2.0433e-01  1.2610e-01  2.1742e-03  8.2610e-03 -6.6014e-01  4.3855e-01  7.3577e+03  0:08:21 9906
    95  8.1894e-01  2.0487e-01  1.2691e-01  2.1237e-03  8.2755e-03 -6.9822e-01  4.2613e-01  5.5486e+03  0:39:41 9905
    96  8.1576e-01  2.0525e-01  1.2751e-01  2.0734e-03  8.2554e-03 -7.3840e-01  4.1389e-01  3.7940e+03  0:31:45 9904
    97  8.1240e-01  2.0545e-01  1.2781e-01  2.0234e-03  8.1614e-03 -7.8094e-01  4.0194e-01  2.0541e+03  0:25:24 9903
    98  8.0861e-01  2.0548e-01  1.2785e-01  1.9739e-03  8.0207e-03 -8.2609e-01  3.9033e-01  4.2730e+02  0:20:19 9902
    99  8.0447e-01  2.0535e-01  1.2757e-01  1.9264e-03  7.8850e-03 -8.7412e-01  3.7914e-01 -1.1592e+03  0:16:15 9901

  iter  continuity  x-velocity  y-velocity           k       omega  mass-balan     mass_in  pressure_m     time/iter
   100  7.9999e-01  2.0504e-01  1.2707e-01  1.8808e-03  7.9106e-03 -9.2542e-01  3.6843e-01 -2.7163e+03  0:13:00 9900
   101  7.9510e-01  2.0452e-01  1.2632e-01  1.8357e-03  7.8245e-03 -9.8020e-01  3.5825e-01 -4.1529e+03  0:10:24 9899
   102  7.9041e-01  2.0379e-01  1.2533e-01  1.7915e-03  7.6603e-03 -1.0387e+00  3.4864e-01 -5.5281e+03  0:08:19 9898
   103  7.8617e-01  2.0286e-01  1.2414e-01  1.7498e-03  7.4742e-03 -1.1015e+00  3.3962e-01 -6.9158e+03  0:39:39 9897
   104  7.8136e-01  2.0174e-01  1.2282e-01  1.7116e-03  7.5059e-03 -1.1688e+00  3.3124e-01 -8.1749e+03  0:31:43 9896
   105  7.7577e-01  2.0040e-01  1.2151e-01  1.6746e-03  7.4316e-03 -1.2408e+00  3.2350e-01 -9.3423e+03  0:25:22 9895
   106  7.6938e-01  1.9882e-01  1.2023e-01  1.6393e-03  7.2503e-03 -1.3180e+00  3.1642e-01 -1.0568e+04  0:20:17 9894
   107  7.6204e-01  1.9700e-01  1.1900e-01  1.6068e-03  7.0701e-03 -1.4000e+00  3.0998e-01 -1.1687e+04  0:16:14 9893
   108  7.5368e-01  1.9495e-01  1.1779e-01  1.5758e-03  7.0986e-03 -1.4874e+00  3.0416e-01 -1.2675e+04  0:12:59 9892
   109  7.4471e-01  1.9263e-01  1.1654e-01  1.5450e-03  7.0174e-03 -1.5799e+00  2.9893e-01 -1.3624e+04  0:10:23 9891
   110  7.3532e-01  1.9001e-01  1.1515e-01  1.5141e-03  6.8275e-03 -1.6773e+00  2.9427e-01 -1.4583e+04  0:41:16 9890

  iter  continuity  x-velocity  y-velocity           k       omega  mass-balan     mass_in  pressure_m     time/iter
   111  7.2512e-01  1.8708e-01  1.1358e-01  1.4851e-03  6.6999e-03 -1.7791e+00  2.9014e-01 -1.5460e+04  0:33:01 9889
   112  7.1391e-01  1.8382e-01  1.1176e-01  1.4565e-03  6.7118e-03 -1.8848e+00  2.8652e-01 -1.6240e+04  0:26:25 9888
   113  7.0177e-01  1.8022e-01  1.0976e-01  1.4269e-03  6.5997e-03 -1.9937e+00  2.8338e-01 -1.7010e+04  0:21:08 9887
   114  6.8900e-01  1.7630e-01  1.0755e-01  1.3975e-03  6.3714e-03 -2.1048e+00  2.8068e-01 -1.7801e+04  0:16:54 9886
   115  6.7571e-01  1.7204e-01  1.0508e-01  1.3692e-03  6.2521e-03 -2.2171e+00  2.7839e-01 -1.8509e+04  0:13:31 9885
   116  6.6188e-01  1.6748e-01  1.0241e-01  1.3414e-03  6.2263e-03 -2.3290e+00  2.7649e-01 -1.9173e+04  0:43:46 9884
   117  6.4774e-01  1.6265e-01  9.9684e-02  1.3128e-03  6.0782e-03 -2.4410e+00  2.7475e-01 -1.9768e+04  0:35:00 9883
   118  6.3347e-01  1.5764e-01  9.6881e-02  1.2840e-03  5.8676e-03 -2.5503e+00  2.7347e-01 -2.0290e+04  0:28:00 9882
   119  6.1928e-01  1.5240e-01  9.3944e-02  1.2563e-03  5.6624e-03 -2.6563e+00  2.7240e-01 -2.0867e+04  0:22:24 9881
   120  6.0540e-01  1.4704e-01  9.0870e-02  1.2290e-03  5.6335e-03 -2.7577e+00  2.7163e-01 -2.1379e+04  0:17:55 9880
   121  5.9205e-01  1.4161e-01  8.7630e-02  1.2012e-03  5.5027e-03 -2.8534e+00  2.7116e-01 -2.1841e+04  0:14:20 9879

  iter  continuity  x-velocity  y-velocity           k       omega  mass-balan     mass_in  pressure_m     time/iter
   122  5.7932e-01  1.3618e-01  8.4368e-02  1.1741e-03  5.3013e-03 -2.9426e+00  2.7095e-01 -2.2242e+04  0:11:28 9878
   123  5.6716e-01  1.3081e-01  8.0972e-02  1.1475e-03  5.0307e-03 -3.0245e+00  2.7100e-01 -2.2583e+04  0:09:10 9877
   124  5.5636e-01  1.2558e-01  7.7617e-02  1.1227e-03  4.9475e-03 -3.0983e+00  2.7130e-01 -2.2890e+04  0:40:15 9876
   125  5.4702e-01  1.2054e-01  7.4320e-02  1.0981e-03  4.8810e-03 -3.1638e+00  2.7175e-01 -2.3178e+04  0:32:12 9875
   126  5.3912e-01  1.1573e-01  7.1081e-02  1.0737e-03  4.7436e-03 -3.2206e+00  2.7238e-01 -2.3428e+04  0:25:46 9874
   127  5.3328e-01  1.1116e-01  6.7843e-02  1.0499e-03  4.5721e-03 -3.2684e+00  2.7320e-01 -2.3655e+04  0:20:36 9873
   128  5.2997e-01  1.0688e-01  6.4790e-02  1.0281e-03  4.3576e-03 -3.3072e+00  2.7421e-01 -2.3891e+04  0:16:29 9872
   129  5.2930e-01  1.0290e-01  6.1829e-02  1.0082e-03  4.2029e-03 -3.3368e+00  2.7539e-01 -2.4097e+04  0:13:11 9871
   130  5.3160e-01  9.9258e-02  5.8962e-02  9.9038e-04  4.1694e-03 -3.3577e+00  2.7674e-01 -2.4280e+04  0:10:33 9870
   131  5.3503e-01  9.5925e-02  5.6225e-02  9.7344e-04  4.0811e-03 -3.3702e+00  2.7824e-01 -2.4438e+04  0:08:26 9869
   132  5.3757e-01  9.2888e-02  5.3590e-02  9.5713e-04  3.9556e-03 -3.3747e+00  2.7989e-01 -2.4568e+04  0:06:45 9868

  iter  continuity  x-velocity  y-velocity           k       omega  mass-balan     mass_in  pressure_m     time/iter
   133  5.3890e-01  9.0188e-02  5.1104e-02  9.4121e-04  3.8182e-03 -3.3718e+00  2.8168e-01 -2.4671e+04  0:38:17 9867
   134  5.3898e-01  8.7918e-02  4.8854e-02  9.2581e-04  3.6815e-03 -3.3617e+00  2.8357e-01 -2.4757e+04  0:30:38 9866
   135  5.3800e-01  8.6037e-02  4.6884e-02  9.1064e-04  3.5258e-03 -3.3451e+00  2.8561e-01 -2.4822e+04  0:24:30 9865
   136  5.3601e-01  8.4512e-02  4.5161e-02  8.9648e-04  3.4413e-03 -3.3225e+00  2.8768e-01 -2.4863e+04  0:19:36 9864
   137  5.3310e-01  8.3299e-02  4.3747e-02  8.8312e-04  3.3783e-03 -3.2945e+00  2.8979e-01 -2.4898e+04  0:15:41 9863
   138  5.2912e-01  8.2387e-02  4.2568e-02  8.7060e-04  3.3289e-03 -3.2613e+00  2.9194e-01 -2.4904e+04  0:12:32 9862
   139  5.2418e-01  8.1747e-02  4.1620e-02  8.5850e-04  3.2500e-03 -3.2234e+00  2.9422e-01 -2.4887e+04  0:10:02 9861
   140  5.1860e-01  8.1411e-02  4.0748e-02  8.4633e-04  3.1530e-03 -3.1815e+00  2.9642e-01 -2.4846e+04  0:08:01 9860
   141  5.1244e-01  8.1252e-02  3.9988e-02  8.3423e-04  3.0629e-03 -3.1358e+00  2.9875e-01 -2.4771e+04  0:39:17 9859
   142  5.0570e-01  8.1473e-02  3.9385e-02  8.2239e-04  2.9757e-03 -3.0866e+00  3.0110e-01 -2.4682e+04  0:31:25 9858
   143  4.9833e-01  8.1860e-02  3.9131e-02  8.1092e-04  2.8896e-03 -3.0344e+00  3.0349e-01 -2.4569e+04  0:25:08 9857

  iter  continuity  x-velocity  y-velocity           k       omega  mass-balan     mass_in  pressure_m     time/iter
   144  4.9047e-01  8.2041e-02  3.8884e-02  7.9966e-04  2.8087e-03 -2.9797e+00  3.0596e-01 -2.4429e+04  0:20:06 9856
   145  4.8217e-01  8.2027e-02  3.8639e-02  7.8865e-04  2.7275e-03 -2.9229e+00  3.0844e-01 -2.4270e+04  0:16:05 9855
   146  4.7351e-01  8.1838e-02  3.8437e-02  7.7799e-04  2.6502e-03 -2.8642e+00  3.1090e-01 -2.4089e+04  0:12:52 9854
   147  4.6457e-01  8.1494e-02  3.8418e-02  7.6774e-04  2.5776e-03 -2.8039e+00  3.1333e-01 -2.3892e+04  0:10:17 9853
   148  4.5545e-01  8.1009e-02  3.8434e-02  7.5789e-04  2.5219e-03 -2.7422e+00  3.1574e-01 -2.3680e+04  0:08:14 9852
   149  4.4613e-01  8.0429e-02  3.8418e-02  7.4848e-04  2.4709e-03 -2.6793e+00  3.1810e-01 -2.3449e+04  0:06:35 9851
   150  4.3657e-01  7.9753e-02  3.8434e-02  7.3971e-04  2.4258e-03 -2.6155e+00  3.2043e-01 -2.3201e+04  0:38:06 9850
   151  4.2681e-01  7.8992e-02  3.8460e-02  7.3159e-04  2.3992e-03 -2.5510e+00  3.2268e-01 -2.2937e+04  0:30:29 9849
   152  4.1682e-01  7.8158e-02  3.8651e-02  7.2423e-04  2.3930e-03 -2.4860e+00  3.2490e-01 -2.2660e+04  0:24:23 9848
   153  4.0653e-01  7.7275e-02  3.8921e-02  7.1702e-04  2.3976e-03 -2.4205e+00  3.2706e-01 -2.2371e+04  0:19:30 9847
   154  3.9622e-01  7.6314e-02  3.9199e-02  7.1019e-04  2.4025e-03 -2.3546e+00  3.2917e-01 -2.2067e+04  0:15:36 9846

  iter  continuity  x-velocity  y-velocity           k       omega  mass-balan     mass_in  pressure_m     time/iter
   155  3.8599e-01  7.5287e-02  3.9444e-02  7.0338e-04  2.4104e-03 -2.2888e+00  3.3121e-01 -2.1749e+04  0:45:18 9845
   156  3.7575e-01  7.4217e-02  3.9684e-02  6.9689e-04  2.4213e-03 -2.2228e+00  3.3318e-01 -2.1506e+04  0:36:14 9844
   157  3.6551e-01  7.3115e-02  3.9938e-02  6.9068e-04  2.4480e-03 -2.1570e+00  3.3509e-01 -2.1278e+04  0:28:59 9843
   158  3.5531e-01  7.1989e-02  4.0104e-02  6.8434e-04  2.4673e-03 -2.0909e+00  3.3692e-01 -2.1048e+04  0:23:11 9842
   159  3.4519e-01  7.0854e-02  4.0259e-02  6.7834e-04  2.4899e-03 -2.0250e+00  3.3868e-01 -2.0812e+04  0:18:33 9841
   160  3.3526e-01  6.9713e-02  4.0467e-02  6.7280e-04  2.5233e-03 -1.9593e+00  3.4037e-01 -2.0569e+04  0:14:50 9840
   161  3.2548e-01  6.8586e-02  4.0712e-02  6.6739e-04  2.5576e-03 -1.8938e+00  3.4199e-01 -2.0318e+04  0:11:52 9839
   162  3.1581e-01  6.7473e-02  4.0955e-02  6.6771e-04  2.5896e-03 -1.8292e+00  3.4354e-01 -1.9616e+04  0:09:30 9838
   163  3.0586e-01  6.6434e-02  4.1433e-02  6.6452e-04  2.5585e-03 -1.7639e+00  3.4500e-01 -1.9020e+04  0:40:23 9837
   164  2.9643e-01  6.5367e-02  4.1677e-02  6.6083e-04  2.5472e-03 -1.6988e+00  3.4639e-01 -1.8466e+04  0:32:18 9836
   165  2.8731e-01  6.4331e-02  4.1822e-02  6.5667e-04  2.5513e-03 -1.6341e+00  3.4770e-01 -1.8000e+04  0:25:50 9835

  iter  continuity  x-velocity  y-velocity           k       omega  mass-balan     mass_in  pressure_m     time/iter
   166  2.7846e-01  6.3332e-02  4.1976e-02  6.5248e-04  2.5606e-03 -1.5696e+00  3.4893e-01 -1.7697e+04  0:20:40 9834
   167  2.6982e-01  6.2382e-02  4.2186e-02  6.4832e-04  2.6130e-03 -1.5056e+00  3.5009e-01 -1.7394e+04  0:16:32 9833
   168  2.6146e-01  6.1498e-02  4.2466e-02  6.4383e-04  2.6147e-03 -1.4421e+00  3.5117e-01 -1.7083e+04  0:13:14 9832
   169  2.5338e-01  6.0671e-02  4.2815e-02  6.3948e-04  2.6022e-03 -1.3790e+00  3.5216e-01 -1.6756e+04  0:10:35 9831
   170  2.4561e-01  5.9909e-02  4.3209e-02  6.3547e-04  2.6016e-03 -1.3166e+00  3.5306e-01 -1.6410e+04  0:08:28 9830
   171  2.3813e-01  5.9214e-02  4.3654e-02  6.3166e-04  2.6180e-03 -1.2548e+00  3.5388e-01 -1.6156e+04  0:39:32 9829
   172  2.3093e-01  5.8582e-02  4.4145e-02  6.2734e-04  2.6214e-03 -1.1939e+00  3.5461e-01 -1.6075e+04  0:31:37 9828
   173  2.2402e-01  5.8010e-02  4.4669e-02  6.2328e-04  2.6134e-03 -1.1338e+00  3.5525e-01 -1.5947e+04  0:25:18 9827
   174  2.1739e-01  5.7500e-02  4.5242e-02  6.1936e-04  2.6215e-03 -1.0746e+00  3.5580e-01 -1.5765e+04  0:20:14 9826
   175  2.1106e-01  5.7048e-02  4.5866e-02  6.1496e-04  2.6174e-03 -1.0165e+00  3.5626e-01 -1.5522e+04  0:16:11 9825
   176  2.0503e-01  5.6655e-02  4.6501e-02  6.1108e-04  2.6151e-03 -9.5944e-01  3.5663e-01 -1.5595e+04  0:12:57 9824

  iter  continuity  x-velocity  y-velocity           k       omega  mass-balan     mass_in  pressure_m     time/iter
   177  1.9930e-01  5.6320e-02  4.7157e-02  6.0704e-04  2.6126e-03 -9.0353e-01  3.5691e-01 -1.5605e+04  0:10:21 9823
   178  1.9386e-01  5.6044e-02  4.7825e-02  6.0327e-04  2.6138e-03 -8.4880e-01  3.5711e-01 -1.5512e+04  0:08:17 9822
   179  1.8871e-01  5.5836e-02  4.8505e-02  5.9947e-04  2.6042e-03 -7.9532e-01  3.5722e-01 -1.5416e+04  0:39:22 9821
   180  1.8387e-01  5.5698e-02  4.9185e-02  5.9573e-04  2.6016e-03 -7.4307e-01  3.5725e-01 -1.5588e+04  0:31:29 9820
   181  1.7937e-01  5.5640e-02  4.9850e-02  5.9221e-04  2.5991e-03 -6.9208e-01  3.5722e-01 -1.5605e+04  0:25:11 9819
   182  1.7518e-01  5.5674e-02  5.0488e-02  5.8853e-04  2.5819e-03 -6.4236e-01  3.5712e-01 -1.5477e+04  0:20:09 9818
   183  1.7133e-01  5.5795e-02  5.1122e-02  5.8529e-04  2.5826e-03 -5.9393e-01  3.5694e-01 -1.5671e+04  0:16:07 9817
   184  1.6778e-01  5.6012e-02  5.1721e-02  5.8177e-04  2.5626e-03 -5.4680e-01  3.5670e-01 -1.5755e+04  0:12:54 9816
   185  1.6456e-01  5.6320e-02  5.2295e-02  5.7857e-04  2.5616e-03 -5.0097e-01  3.5640e-01 -1.5661e+04  0:10:19 9815

 Reversed flow on 1 face (0.5% area) of pressure-outlet 12.
   186  1.6157e-01  5.6729e-02  5.2816e-02  5.7511e-04  2.5449e-03 -4.5647e-01  3.5605e-01 -1.5810e+04  0:08:15 9814

 Reversed flow on 1 face (0.5% area) of pressure-outlet 12.
   187  1.5887e-01  5.7263e-02  5.3256e-02  5.7179e-04  2.5439e-03 -4.1329e-01  3.5564e-01 -1.5911e+04  0:39:19 9813

 Reversed flow on 1 face (0.5% area) of pressure-outlet 12.

  iter  continuity  x-velocity  y-velocity           k       omega  mass-balan     mass_in  pressure_m     time/iter
   188  1.5647e-01  5.7969e-02  5.3618e-02  5.6819e-04  2.5366e-03 -3.7144e-01  3.5520e-01 -1.5827e+04  0:31:27 9812

 Reversed flow on 1 face (0.5% area) of pressure-outlet 12.
   189  1.5440e-01  5.8870e-02  5.3889e-02  5.6485e-04  2.5412e-03 -3.3091e-01  3.5472e-01 -1.5973e+04  0:25:09 9811

 Reversed flow on 1 face (0.5% area) of pressure-outlet 12.
   190  1.5264e-01  5.9794e-02  5.4086e-02  5.6126e-04  2.5379e-03 -2.9168e-01  3.5420e-01 -1.6049e+04  0:20:07 9810

 Reversed flow on 1 face (0.5% area) of pressure-outlet 12.
   191  1.5120e-01  6.0646e-02  5.4183e-02  5.5763e-04  2.5393e-03 -2.5373e-01  3.5367e-01 -1.5945e+04  0:16:06 9809

 Reversed flow on 1 face (0.5% area) of pressure-outlet 12.
   192  1.5005e-01  6.1421e-02  5.4209e-02  5.5396e-04  2.5344e-03 -2.1706e-01  3.5311e-01 -1.6125e+04  0:45:34 9808

 Reversed flow on 1 face (0.5% area) of pressure-outlet 12.
   193  1.4920e-01  6.2090e-02  5.4142e-02  5.5024e-04  2.5318e-03 -1.8167e-01  3.5253e-01 -1.6173e+04  0:36:27 9807

 Reversed flow on 2 faces (1.1% area) of pressure-outlet 12.
   194  1.4865e-01  6.2643e-02  5.4002e-02  5.4643e-04  2.5272e-03 -1.4753e-01  3.5195e-01 -1.6116e+04  0:29:09 9806

 Reversed flow on 2 faces (1.1% area) of pressure-outlet 12.
   195  1.4839e-01  6.3080e-02  5.3776e-02  5.4252e-04  2.5222e-03 -1.1464e-01  3.5137e-01 -1.6323e+04  0:23:19 9805

 Reversed flow on 2 faces (1.1% area) of pressure-outlet 12.
   196  1.4840e-01  6.3407e-02  5.3489e-02  5.3855e-04  2.5174e-03 -8.2992e-02  3.5078e-01 -1.6331e+04  0:18:39 9804

 Reversed flow on 3 faces (1.7% area) of pressure-outlet 12.
   197  1.4865e-01  6.3620e-02  5.3180e-02  5.3448e-04  2.5113e-03 -5.2561e-02  3.5019e-01 -1.6501e+04  0:14:55 9803

 Reversed flow on 3 faces (1.7% area) of pressure-outlet 12.
   198  1.4915e-01  6.3741e-02  5.2856e-02  5.3037e-04  2.5071e-03 -2.3337e-02  3.4961e-01 -1.6645e+04  0:11:56 9802

 Reversed flow on 4 faces (2.3% area) of pressure-outlet 12.

  iter  continuity  x-velocity  y-velocity           k       omega  mass-balan     mass_in  pressure_m     time/iter
   199  1.4986e-01  6.3764e-02  5.2513e-02  5.2606e-04  2.5002e-03  4.6984e-03  3.4904e-01 -1.6764e+04  0:42:13 9801

 Reversed flow on 4 faces (2.3% area) of pressure-outlet 12.
   200  1.5077e-01  6.3706e-02  5.2191e-02  5.2179e-04  2.4975e-03  3.1560e-02  3.4848e-01 -1.7028e+04  0:33:46 9800

 Reversed flow on 5 faces (2.9% area) of pressure-outlet 12.
   201  1.5184e-01  6.3570e-02  5.1866e-02  5.1718e-04  2.4900e-03  5.7268e-02  3.4794e-01 -1.7159e+04  0:27:01 9799

 Reversed flow on 5 faces (2.9% area) of pressure-outlet 12.
   202  1.5305e-01  6.3367e-02  5.1583e-02  5.1274e-04  2.4897e-03  8.1838e-02  3.4741e-01 -1.7534e+04  0:21:37 9798

 Reversed flow on 6 faces (3.6% area) of pressure-outlet 12.
   203  1.5437e-01  6.3107e-02  5.1339e-02  5.0796e-04  2.4806e-03  1.0529e-01  3.4691e-01 -1.7708e+04  0:17:17 9797

 Reversed flow on 7 faces (4.2% area) of pressure-outlet 12.
   204  1.5577e-01  6.2798e-02  5.1156e-02  5.0337e-04  2.4811e-03  1.2765e-01  3.4642e-01 -1.8172e+04  0:13:50 9796

 Reversed flow on 7 faces (4.2% area) of pressure-outlet 12.
   205  1.5722e-01  6.2447e-02  5.1038e-02  4.9842e-04  2.4696e-03  1.4894e-01  3.4596e-01 -1.8427e+04  0:11:04 9795

 Reversed flow on 8 faces (4.9% area) of pressure-outlet 12.
   206  1.5868e-01  6.2062e-02  5.0982e-02  4.9359e-04  2.4694e-03  1.6917e-01  3.4552e-01 -1.8951e+04  0:08:51 9794

 Reversed flow on 9 faces (5.6% area) of pressure-outlet 12.
   207  1.6013e-01  6.1651e-02  5.1009e-02  4.8854e-04  2.4586e-03  1.8837e-01  3.4510e-01 -1.9277e+04  0:39:43 9793

 Reversed flow on 10 faces (6.3% area) of pressure-outlet 12.
   208  1.6157e-01  6.1226e-02  5.1119e-02  4.7778e-04  2.3994e-03  2.0662e-01  3.4472e-01 -2.0861e+04  0:31:46 9792

 Reversed flow on 11 faces (7.0% area) of pressure-outlet 12.
   209  1.6339e-01  6.0724e-02  5.0967e-02  4.7687e-04  2.4681e-03  2.2377e-01  3.4435e-01 -2.0904e+04  0:25:25 9791

 Reversed flow on 12 faces (7.7% area) of pressure-outlet 12.

  iter  continuity  x-velocity  y-velocity           k       omega  mass-balan     mass_in  pressure_m     time/iter
   210  1.6456e-01  6.0339e-02  5.1606e-02  4.7236e-04  2.4475e-03  2.4000e-01  3.4401e-01 -2.1362e+04  0:20:20 9790

 Reversed flow on 13 faces (8.5% area) of pressure-outlet 12.
   211  1.6574e-01  5.9928e-02  5.2111e-02  4.6763e-04  2.4389e-03  2.5530e-01  3.4369e-01 -2.1656e+04  0:16:16 9789

 Reversed flow on 15 faces (10.0% area) of pressure-outlet 12.
   212  1.6683e-01  5.9515e-02  5.2585e-02  4.6250e-04  2.4300e-03  2.6969e-01  3.4341e-01 -2.2215e+04  0:13:01 9788

 Reversed flow on 16 faces (10.8% area) of pressure-outlet 12.
   213  1.6778e-01  5.9111e-02  5.3075e-02  4.5131e-04  2.3648e-03  2.8322e-01  3.4314e-01 -2.3605e+04  0:10:24 9787

 Reversed flow on 18 faces (12.3% area) of pressure-outlet 12.
   214  1.6901e-01  5.8660e-02  5.3245e-02  4.4411e-04  2.3680e-03  2.9587e-01  3.4290e-01 -2.5054e+04  0:40:57 9786

 Reversed flow on 20 faces (14.0% area) of pressure-outlet 12.
   215  1.7000e-01  5.8278e-02  5.3862e-02  4.4360e-04  2.4337e-03  3.0763e-01  3.4268e-01 -2.4971e+04  0:32:45 9785

 Reversed flow on 23 faces (16.5% area) of pressure-outlet 12.
   216  1.7030e-01  5.7991e-02  5.5020e-02  4.3281e-04  2.3385e-03  3.1868e-01  3.4248e-01 -2.6413e+04  0:26:12 9784

 Reversed flow on 26 faces (19.1% area) of pressure-outlet 12.
   217  1.7104e-01  5.7623e-02  5.5528e-02  4.2607e-04  2.3512e-03  3.2891e-01  3.4230e-01 -2.7411e+04  0:20:57 9783

 Reversed flow on 30 faces (22.8% area) of pressure-outlet 12.
   218  1.7150e-01  5.7317e-02  5.6324e-02  4.1930e-04  2.3411e-03  3.3840e-01  3.4214e-01 -2.8557e+04  0:16:46 9782

 Reversed flow on 36 faces (28.7% area) of pressure-outlet 12.
   219  1.7181e-01  5.7035e-02  5.7245e-02  4.1301e-04  2.3398e-03  3.4722e-01  3.4200e-01 -2.9414e+04  0:13:25 9781

 Reversed flow on 42 faces (35.0% area) of pressure-outlet 12.
   220  1.7197e-01  5.6786e-02  5.8250e-02  4.0661e-04  2.3349e-03  3.5536e-01  3.4187e-01 -3.0398e+04  0:10:44 9780

 Reversed flow on 51 faces (45.4% area) of pressure-outlet 12.

  iter  continuity  x-velocity  y-velocity           k       omega  mass-balan     mass_in  pressure_m     time/iter
   221  1.7200e-01  5.6569e-02  5.9281e-02  4.0011e-04  2.3348e-03  3.6292e-01  3.4176e-01 -3.1198e+04  0:08:35 9779

 Reversed flow on 60 faces (56.8% area) of pressure-outlet 12.
   222  1.7195e-01  5.6373e-02  6.0327e-02  3.9339e-04  2.3309e-03  3.6989e-01  3.4167e-01 -3.2024e+04  0:06:52 9778

 Reversed flow on 65 faces (63.6% area) of pressure-outlet 12.
   223  1.7179e-01  5.6187e-02  6.1356e-02  3.8668e-04  2.3269e-03  3.7615e-01  3.4159e-01 -3.2789e+04  0:38:05 9777

 Reversed flow on 70 faces (70.6% area) of pressure-outlet 12.
   224  1.7150e-01  5.6015e-02  6.2296e-02  3.7981e-04  2.3250e-03  3.8182e-01  3.4152e-01 -3.3402e+04  0:30:28 9776

 Reversed flow on 73 faces (74.8% area) of pressure-outlet 12.
   225  1.7113e-01  5.5842e-02  6.3166e-02  3.7277e-04  2.3139e-03  3.8687e-01  3.4146e-01 -3.4182e+04  0:24:22 9775

 Reversed flow on 76 faces (79.1% area) of pressure-outlet 12.
   226  1.7074e-01  5.5680e-02  6.3958e-02  3.6567e-04  2.3108e-03  3.9143e-01  3.4141e-01 -3.4737e+04  0:19:29 9774

 Reversed flow on 79 faces (83.3% area) of pressure-outlet 12.
   227  1.7030e-01  5.5525e-02  6.4720e-02  3.5840e-04  2.2960e-03  3.9553e-01  3.4137e-01 -3.5661e+04  0:15:35 9773

 Reversed flow on 81 faces (86.0% area) of pressure-outlet 12.
   228  1.6980e-01  5.5365e-02  6.5482e-02  3.5110e-04  2.2914e-03  3.9918e-01  3.4135e-01 -3.6187e+04  0:12:28 9772

 Reversed flow on 82 faces (87.3% area) of pressure-outlet 12.
   229  1.6933e-01  5.5204e-02  6.6165e-02  3.4344e-04  2.2755e-03  4.0239e-01  3.4133e-01 -3.6979e+04  0:09:59 9771

 Reversed flow on 84 faces (89.8% area) of pressure-outlet 12.
   230  1.6877e-01  5.5042e-02  6.6847e-02  3.3593e-04  2.2649e-03  4.0528e-01  3.4132e-01 -3.7633e+04  0:07:59 9770

 Reversed flow on 85 faces (91.0% area) of pressure-outlet 12.
   231  1.6821e-01  5.4888e-02  6.7480e-02  3.2851e-04  2.2579e-03  4.0780e-01  3.4133e-01 -3.8184e+04  0:38:57 9769

 Reversed flow on 87 faces (93.2% area) of pressure-outlet 12.

  iter  continuity  x-velocity  y-velocity           k       omega  mass-balan     mass_in  pressure_m     time/iter
   232  1.6760e-01  5.4734e-02  6.8185e-02  3.2097e-04  2.2432e-03  4.1006e-01  3.4134e-01 -3.8889e+04  0:31:09 9768

 Reversed flow on 88 faces (94.2% area) of pressure-outlet 12.
   233  1.6702e-01  5.4574e-02  6.8884e-02  3.1372e-04  2.2362e-03  4.1198e-01  3.4136e-01 -3.9328e+04  0:24:55 9767

 Reversed flow on 89 faces (95.2% area) of pressure-outlet 12.
   234  1.6641e-01  5.4402e-02  6.9585e-02  3.0624e-04  2.2172e-03  4.1365e-01  3.4138e-01 -4.0133e+04  0:19:56 9766

 Reversed flow on 90 faces (96.1% area) of pressure-outlet 12.
   235  1.6579e-01  5.4229e-02  7.0282e-02  2.9897e-04  2.2083e-03  4.1508e-01  3.4142e-01 -4.0646e+04  0:15:57 9765

 Reversed flow on 91 faces (96.9% area) of pressure-outlet 12.
   236  1.6519e-01  5.4044e-02  7.1015e-02  2.9188e-04  2.1945e-03  4.1629e-01  3.4146e-01 -4.1341e+04  0:45:18 9764

 Reversed flow on 92 faces (97.6% area) of pressure-outlet 12.
   237  1.6456e-01  5.3849e-02  7.1830e-02  2.8495e-04  2.1808e-03  4.1730e-01  3.4150e-01 -4.1970e+04  0:36:14 9763

 Reversed flow on 93 faces (98.2% area) of pressure-outlet 12.
   238  1.6396e-01  5.3641e-02  7.2688e-02  2.7843e-04  2.1723e-03  4.1813e-01  3.4155e-01 -4.2562e+04  0:28:59 9762

 Reversed flow on 94 faces (98.8% area) of pressure-outlet 12.
   239  1.6334e-01  5.3430e-02  7.3620e-02  2.7217e-04  2.1525e-03  4.1881e-01  3.4161e-01 -4.3295e+04  0:23:11 9761

 Reversed flow on 94 faces (98.8% area) of pressure-outlet 12.
   240  1.6270e-01  5.3216e-02  7.4648e-02  2.6627e-04  2.1437e-03  4.1933e-01  3.4167e-01 -4.3779e+04  0:18:33 9760

 Reversed flow on 94 faces (98.8% area) of pressure-outlet 12.
   241  1.6210e-01  5.2991e-02  7.5730e-02  2.6061e-04  2.1281e-03  4.1973e-01  3.4174e-01 -4.4641e+04  0:14:50 9759

 Reversed flow on 95 faces (99.2% area) of pressure-outlet 12.
   242  1.6149e-01  5.2760e-02  7.6887e-02  2.5567e-04  2.1148e-03  4.2002e-01  3.4181e-01 -4.5207e+04  0:11:52 9758

 Reversed flow on 95 faces (99.2% area) of pressure-outlet 12.

  iter  continuity  x-velocity  y-velocity           k       omega  mass-balan     mass_in  pressure_m     time/iter
   243  1.6083e-01  5.2536e-02  7.8134e-02  2.5123e-04  2.1060e-03  4.2021e-01  3.4189e-01 -4.6000e+04  0:09:30 9757

 Reversed flow on 95 faces (99.2% area) of pressure-outlet 12.
   244  1.6016e-01  5.2314e-02  7.9450e-02  2.4715e-04  2.0864e-03  4.2031e-01  3.4197e-01 -4.6665e+04  0:40:07 9756

 Reversed flow on 95 faces (99.2% area) of pressure-outlet 12.
   245  1.5948e-01  5.2091e-02  8.0844e-02  2.4355e-04  2.0781e-03  4.2033e-01  3.4205e-01 -4.7303e+04  0:32:05 9755

 Reversed flow on 95 faces (99.2% area) of pressure-outlet 12.
   246  1.5879e-01  5.1856e-02  8.2225e-02  2.4063e-04  2.0655e-03  4.2028e-01  3.4213e-01 -4.8071e+04  0:25:40 9754

 Reversed flow on 95 faces (99.2% area) of pressure-outlet 12.
   247  1.5806e-01  5.1623e-02  8.3686e-02  2.3826e-04  2.0520e-03  4.2016e-01  3.4222e-01 -4.8580e+04  0:20:32 9753

 Reversed flow on 95 faces (99.2% area) of pressure-outlet 12.
   248  1.5728e-01  5.1389e-02  8.5191e-02  2.3677e-04  2.0437e-03  4.2000e-01  3.4231e-01 -4.9353e+04  0:16:25 9752

 Reversed flow on 95 faces (99.2% area) of pressure-outlet 12.
   249  1.5650e-01  5.1163e-02  8.6705e-02  2.3592e-04  2.0265e-03  4.1978e-01  3.4240e-01 -4.9962e+04  0:13:08 9751

 Reversed flow on 95 faces (99.2% area) of pressure-outlet 12.
   250  1.5569e-01  5.0945e-02  8.8220e-02  2.3597e-04  2.0213e-03  4.1952e-01  3.4250e-01 -5.0444e+04  0:10:31 9750

 Reversed flow on 95 faces (99.2% area) of pressure-outlet 12.
   251  1.5488e-01  5.0730e-02  8.9735e-02  2.3678e-04  2.0095e-03  4.1921e-01  3.4259e-01 -5.1168e+04  0:08:24 9749

 Reversed flow on 95 faces (99.2% area) of pressure-outlet 12.
   252  1.5406e-01  5.0529e-02  9.1213e-02  2.3832e-04  1.9946e-03  4.1887e-01  3.4270e-01 -5.1675e+04  0:39:13 9748

 Reversed flow on 94 faces (98.8% area) of pressure-outlet 12.
   253  1.5320e-01  5.0339e-02  9.2655e-02  2.4090e-04  1.9907e-03  4.1849e-01  3.4280e-01 -5.2179e+04  0:31:22 9747

 Reversed flow on 94 faces (98.8% area) of pressure-outlet 12.

  iter  continuity  x-velocity  y-velocity           k       omega  mass-balan     mass_in  pressure_m     time/iter
   254  1.5233e-01  5.0170e-02  9.4095e-02  2.4447e-04  1.9799e-03  4.1807e-01  3.4290e-01 -5.2861e+04  0:25:06 9746

 Reversed flow on 94 faces (98.8% area) of pressure-outlet 12.
   255  1.5143e-01  5.0018e-02  9.5449e-02  2.4857e-04  1.9696e-03  4.1761e-01  3.4301e-01 -5.3336e+04  0:20:04 9745
(cx-use-window-id 51)

 Reversed flow on 93 faces (98.2% area) of pressure-outlet 12.
   256  1.5054e-01  4.9895e-02  9.6732e-02  2.5373e-04  1.9649e-03  4.1711e-01  3.4312e-01 -5.3963e+04  0:16:03 9744

 Reversed flow on 93 faces (98.2% area) of pressure-outlet 12.
   257  1.4959e-01  4.9803e-02  9.7906e-02  2.5958e-04  1.9531e-03  4.1658e-01  3.4323e-01 -5.4538e+04  0:12:51 9743

 Reversed flow on 93 faces (98.2% area) of pressure-outlet 12.
   258  1.4863e-01  4.9758e-02  9.9021e-02  2.6616e-04  1.9520e-03  4.1600e-01  3.4334e-01 -5.5003e+04  0:10:16 9742

 Reversed flow on 92 faces (97.6% area) of pressure-outlet 12.
   259  1.4765e-01  4.9766e-02  9.9978e-02  2.7295e-04  1.9472e-03  4.1537e-01  3.4344e-01 -5.5718e+04  0:08:13 9741

 Reversed flow on 92 faces (97.6% area) of pressure-outlet 12.
   260  1.4663e-01  4.9821e-02  1.0082e-01  2.8026e-04  1.9397e-03  4.1470e-01  3.4355e-01 -5.6224e+04  0:39:02 9740

 Reversed flow on 91 faces (96.9% area) of pressure-outlet 12.
   261  1.4559e-01  4.9935e-02  1.0160e-01  2.9614e-04  2.0097e-03  4.1398e-01  3.4366e-01 -5.6049e+04  0:31:14 9739

 Reversed flow on 91 faces (96.9% area) of pressure-outlet 12.
   262  1.4405e-01  5.0077e-02  1.0231e-01  2.9764e-04  1.9138e-03  4.1320e-01  3.4377e-01 -5.6913e+04  0:24:59 9738

 Reversed flow on 90 faces (96.1% area) of pressure-outlet 12.
   263  1.4322e-01  5.0253e-02  1.0259e-01  3.1202e-04  1.9890e-03  4.1236e-01  3.4387e-01 -5.6783e+04  0:19:59 9737

 Reversed flow on 90 faces (96.1% area) of pressure-outlet 12.
   264  1.4177e-01  5.0434e-02  1.0304e-01  3.1242e-04  1.9075e-03  4.1146e-01  3.4398e-01 -5.7869e+04  0:15:59 9736

 Reversed flow on 89 faces (95.2% area) of pressure-outlet 12.

  iter  continuity  x-velocity  y-velocity           k       omega  mass-balan     mass_in  pressure_m     time/iter
   265  1.4095e-01  5.0631e-02  1.0311e-01  3.2525e-04  1.9719e-03  4.1049e-01  3.4408e-01 -5.7816e+04  0:12:47 9735

 Reversed flow on 89 faces (95.2% area) of pressure-outlet 12.
   266  1.3954e-01  5.0824e-02  1.0340e-01  3.3283e-04  1.9474e-03  4.0946e-01  3.4418e-01 -5.8066e+04  0:10:14 9734

 Reversed flow on 88 faces (94.2% area) of pressure-outlet 12.
   267  1.3829e-01  5.1017e-02  1.0348e-01  3.3918e-04  1.9348e-03  4.0835e-01  3.4428e-01 -5.8445e+04  0:08:11 9733

 Reversed flow on 88 faces (94.2% area) of pressure-outlet 12.
   268  1.3709e-01  5.1205e-02  1.0343e-01  3.4462e-04  1.9190e-03  4.0716e-01  3.4438e-01 -5.8717e+04  0:38:59 9732

 Reversed flow on 87 faces (93.2% area) of pressure-outlet 12.
   269  1.3591e-01  5.1387e-02  1.0334e-01  3.4933e-04  1.9086e-03  4.0589e-01  3.4448e-01 -5.9187e+04  0:31:11 9731

 Reversed flow on 86 faces (92.1% area) of pressure-outlet 12.
   270  1.3473e-01  5.1549e-02  1.0326e-01  3.5335e-04  1.9135e-03  4.0454e-01  3.4457e-01 -5.9695e+04  0:24:57 9730

 Reversed flow on 86 faces (92.1% area) of pressure-outlet 12.
   271  1.3354e-01  5.1688e-02  1.0324e-01  3.5694e-04  1.9002e-03  4.0309e-01  3.4466e-01 -6.0100e+04  0:19:57 9729

 Reversed flow on 85 faces (91.0% area) of pressure-outlet 12.
   272  1.3234e-01  5.1808e-02  1.0335e-01  3.6029e-04  1.8854e-03  4.0156e-01  3.4475e-01 -6.0657e+04  0:15:58 9728

 Reversed flow on 84 faces (89.8% area) of pressure-outlet 12.
   273  1.3112e-01  5.1913e-02  1.0370e-01  3.6332e-04  1.8925e-03  3.9993e-01  3.4483e-01 -6.1224e+04  0:12:46 9727

 Reversed flow on 83 faces (88.6% area) of pressure-outlet 12.
   274  1.2987e-01  5.1996e-02  1.0424e-01  3.6576e-04  1.8812e-03  3.9821e-01  3.4491e-01 -6.1699e+04  0:42:38 9726

 Reversed flow on 83 faces (88.6% area) of pressure-outlet 12.
   275  1.2858e-01  5.2057e-02  1.0499e-01  3.6813e-04  1.8645e-03  3.9639e-01  3.4499e-01 -6.2226e+04  0:34:06 9725

 Reversed flow on 82 faces (87.3% area) of pressure-outlet 12.

  iter  continuity  x-velocity  y-velocity           k       omega  mass-balan     mass_in  pressure_m     time/iter
   276  1.2726e-01  5.2104e-02  1.0589e-01  3.7023e-04  1.8553e-03  3.9447e-01  3.4506e-01 -6.2831e+04  0:27:17 9724

 Reversed flow on 81 faces (86.0% area) of pressure-outlet 12.
   277  1.2590e-01  5.2126e-02  1.0684e-01  3.7193e-04  1.8662e-03  3.9244e-01  3.4513e-01 -6.3322e+04  0:21:49 9723

 Reversed flow on 80 faces (84.6% area) of pressure-outlet 12.
   278  1.2451e-01  5.2128e-02  1.0782e-01  3.7351e-04  1.8531e-03  3.9031e-01  3.4520e-01 -6.3769e+04  0:17:27 9722

 Reversed flow on 79 faces (83.3% area) of pressure-outlet 12.
   279  1.2308e-01  5.2107e-02  1.0878e-01  3.7488e-04  1.8390e-03  3.8808e-01  3.4526e-01 -6.4407e+04  0:13:58 9721

 Reversed flow on 78 faces (81.9% area) of pressure-outlet 12.
   280  1.2161e-01  5.2064e-02  1.0969e-01  3.7610e-04  1.8465e-03  3.8575e-01  3.4531e-01 -6.4947e+04  0:11:10 9720

 Reversed flow on 77 faces (80.5% area) of pressure-outlet 12.
   281  1.2011e-01  5.1998e-02  1.1053e-01  3.7697e-04  1.8390e-03  3.8331e-01  3.4536e-01 -6.5392e+04  0:41:20 9719

 Reversed flow on 76 faces (79.1% area) of pressure-outlet 12.
   282  1.1859e-01  5.1908e-02  1.1128e-01  3.7776e-04  1.8230e-03  3.8078e-01  3.4541e-01 -6.5965e+04  0:33:04 9718

 Reversed flow on 75 faces (77.7% area) of pressure-outlet 12.
   283  1.1704e-01  5.1808e-02  1.1197e-01  3.7859e-04  1.8140e-03  3.7814e-01  3.4545e-01 -6.6543e+04  0:26:27 9717

 Reversed flow on 74 faces (76.3% area) of pressure-outlet 12.
   284  1.1548e-01  5.1702e-02  1.1256e-01  3.7351e-04  1.7857e-03  3.7540e-01  3.4548e-01 -6.7603e+04  0:21:09 9716

 Reversed flow on 72 faces (73.4% area) of pressure-outlet 12.
   285  1.1431e-01  5.1636e-02  1.1266e-01  3.7771e-04  1.8360e-03  3.7257e-01  3.4551e-01 -6.7937e+04  0:16:55 9715

 Reversed flow on 71 faces (72.0% area) of pressure-outlet 12.
   286  1.1260e-01  5.1495e-02  1.1332e-01  3.7336e-04  1.7589e-03  3.6964e-01  3.4554e-01 -6.9055e+04  0:13:32 9714

 Reversed flow on 70 faces (70.6% area) of pressure-outlet 12.

  iter  continuity  x-velocity  y-velocity           k       omega  mass-balan     mass_in  pressure_m     time/iter
   287  1.1139e-01  5.1455e-02  1.1357e-01  3.7900e-04  1.8346e-03  3.6663e-01  3.4556e-01 -6.9338e+04  0:10:50 9713

 Reversed flow on 68 faces (67.7% area) of pressure-outlet 12.
   288  1.0971e-01  5.1331e-02  1.1413e-01  3.8163e-04  1.8066e-03  3.6352e-01  3.4558e-01 -6.9614e+04  0:08:40 9712

 Reversed flow on 67 faces (66.3% area) of pressure-outlet 12.
   289  1.0813e-01  5.1249e-02  1.1450e-01  3.7777e-04  1.7416e-03  3.6034e-01  3.4559e-01 -7.0699e+04  0:39:18 9711

 Reversed flow on 65 faces (63.6% area) of pressure-outlet 12.
   290  1.0693e-01  5.1214e-02  1.1446e-01  3.8369e-04  1.8024e-03  3.5708e-01  3.4560e-01 -7.0995e+04  0:31:26 9710

 Reversed flow on 63 faces (60.8% area) of pressure-outlet 12.
   291  1.0527e-01  5.1085e-02  1.1472e-01  3.8047e-04  1.7489e-03  3.5375e-01  3.4561e-01 -7.1823e+04  0:25:09 9709

 Reversed flow on 61 faces (58.1% area) of pressure-outlet 12.
   292  1.0407e-01  5.1016e-02  1.1471e-01  3.8091e-04  1.7508e-03  3.5035e-01  3.4561e-01 -7.2853e+04  0:20:07 9708

 Reversed flow on 59 faces (55.5% area) of pressure-outlet 12.
   293  1.0284e-01  5.0910e-02  1.1494e-01  3.8779e-04  1.7968e-03  3.4690e-01  3.4561e-01 -7.3114e+04  0:16:05 9707

 Reversed flow on 57 faces (52.9% area) of pressure-outlet 12.
   294  1.0119e-01  5.0715e-02  1.1515e-01  3.8539e-04  1.7353e-03  3.4339e-01  3.4561e-01 -7.3959e+04  0:12:52 9706

 Reversed flow on 54 faces (49.1% area) of pressure-outlet 12.
   295  1.0014e-01  5.0586e-02  1.1528e-01  3.8594e-04  1.7449e-03  3.3984e-01  3.4560e-01 -7.4902e+04  0:10:18 9705

 Reversed flow on 52 faces (46.6% area) of pressure-outlet 12.
   296  9.9054e-02  5.0389e-02  1.1541e-01  3.8708e-04  1.7348e-03  3.3625e-01  3.4559e-01 -7.5807e+04  0:08:14 9704

 Reversed flow on 49 faces (43.0% area) of pressure-outlet 12.
   297  9.7962e-02  5.0157e-02  1.1556e-01  3.9495e-04  1.7908e-03  3.3264e-01  3.4558e-01 -7.5838e+04  0:38:56 9703

 Reversed flow on 46 faces (39.5% area) of pressure-outlet 12.

  iter  continuity  x-velocity  y-velocity           k       omega  mass-balan     mass_in  pressure_m     time/iter
   298  9.6379e-02  4.9832e-02  1.1557e-01  3.9291e-04  1.7284e-03  3.2898e-01  3.4557e-01 -7.6627e+04  0:31:08 9702

 Reversed flow on 43 faces (36.1% area) of pressure-outlet 12.
   299  9.5439e-02  4.9590e-02  1.1538e-01  3.9998e-04  1.7863e-03  3.2533e-01  3.4555e-01 -7.6839e+04  0:24:55 9701

 Reversed flow on 40 faces (32.9% area) of pressure-outlet 12.
   300  9.3948e-02  4.9268e-02  1.1519e-01  4.0356e-04  1.7656e-03  3.2167e-01  3.4553e-01 -7.7082e+04  0:19:56 9700

 Reversed flow on 36 faces (28.7% area) of pressure-outlet 12.
   301  9.2624e-02  4.8995e-02  1.1481e-01  4.0671e-04  1.7749e-03  3.1800e-01  3.4551e-01 -7.7270e+04  0:15:56 9699

 Reversed flow on 33 faces (25.7% area) of pressure-outlet 12.
   302  9.1414e-02  4.8715e-02  1.1425e-01  4.0952e-04  1.7692e-03  3.1434e-01  3.4549e-01 -7.7505e+04  0:12:45 9698

 Reversed flow on 29 faces (21.9% area) of pressure-outlet 12.
   303  9.0382e-02  4.8414e-02  1.1361e-01  4.1222e-04  1.7559e-03  3.1070e-01  3.4547e-01 -7.7896e+04  0:10:12 9697

 Reversed flow on 22 faces (15.6% area) of pressure-outlet 12.
   304  8.9601e-02  4.8099e-02  1.1295e-01  4.1483e-04  1.7513e-03  3.0709e-01  3.4544e-01 -7.8238e+04  0:08:10 9696

 Reversed flow on 18 faces (12.3% area) of pressure-outlet 12.
   305  8.9064e-02  4.7765e-02  1.1232e-01  4.1692e-04  1.7650e-03  3.0351e-01  3.4542e-01 -7.8503e+04  0:38:51 9695

 Reversed flow on 15 faces (10.0% area) of pressure-outlet 12.
   306  8.8741e-02  4.7401e-02  1.1174e-01  4.1883e-04  1.7563e-03  2.9998e-01  3.4539e-01 -7.8992e+04  0:31:04 9694

 Reversed flow on 13 faces (8.5% area) of pressure-outlet 12.
   307  8.8506e-02  4.7005e-02  1.1124e-01  4.2029e-04  1.7494e-03  2.9650e-01  3.4537e-01 -7.9455e+04  0:24:51 9693

 Reversed flow on 12 faces (7.7% area) of pressure-outlet 12.
   308  8.8307e-02  4.6571e-02  1.1086e-01  4.2137e-04  1.7642e-03  2.9309e-01  3.4534e-01 -7.9847e+04  0:19:53 9692

 Reversed flow on 11 faces (7.0% area) of pressure-outlet 12.

  iter  continuity  x-velocity  y-velocity           k       omega  mass-balan     mass_in  pressure_m     time/iter
   309  8.8133e-02  4.6106e-02  1.1060e-01  4.2197e-04  1.7590e-03  2.8974e-01  3.4531e-01 -8.0292e+04  0:15:54 9691

 Reversed flow on 10 faces (6.3% area) of pressure-outlet 12.
   310  8.7961e-02  4.5619e-02  1.1043e-01  4.2232e-04  1.7480e-03  2.8646e-01  3.4528e-01 -8.0864e+04  0:12:43 9690

 Reversed flow on 10 faces (6.3% area) of pressure-outlet 12.
   311  8.7787e-02  4.5129e-02  1.1033e-01  4.2243e-04  1.7457e-03  2.8326e-01  3.4525e-01 -8.1349e+04  0:10:11 9689

 Reversed flow on 9 faces (5.6% area) of pressure-outlet 12.
   312  8.7623e-02  4.4645e-02  1.1020e-01  4.1638e-04  1.7106e-03  2.8015e-01  3.4522e-01 -8.2358e+04  0:08:08 9688

 Reversed flow on 9 faces (5.6% area) of pressure-outlet 12.
   313  8.7792e-02  4.4231e-02  1.0976e-01  4.1971e-04  1.7656e-03  2.7713e-01  3.4518e-01 -8.2846e+04  0:38:48 9687

 Reversed flow on 8 faces (4.9% area) of pressure-outlet 12.
   314  8.7516e-02  4.3737e-02  1.0974e-01  4.1348e-04  1.6985e-03  2.7421e-01  3.4515e-01 -8.3928e+04  0:31:02 9686

 Reversed flow on 8 faces (4.9% area) of pressure-outlet 12.
   315  8.7646e-02  4.3385e-02  1.0926e-01  4.1677e-04  1.7655e-03  2.7140e-01  3.4512e-01 -8.4161e+04  0:24:50 9685

 Reversed flow on 7 faces (4.2% area) of pressure-outlet 12.
   316  8.7236e-02  4.2928e-02  1.0881e-01  4.1078e-04  1.7025e-03  2.6868e-01  3.4509e-01 -8.5386e+04  0:19:52 9684

 Reversed flow on 7 faces (4.2% area) of pressure-outlet 12.
   317  8.7299e-02  4.2618e-02  1.0783e-01  4.1427e-04  1.7652e-03  2.6609e-01  3.4505e-01 -8.5728e+04  0:48:10 9683

 Reversed flow on 7 faces (4.2% area) of pressure-outlet 12.
   318  8.6780e-02  4.2238e-02  1.0671e-01  4.0901e-04  1.7124e-03  2.6361e-01  3.4502e-01 -8.6727e+04  0:38:32 9682

 Reversed flow on 6 faces (3.6% area) of pressure-outlet 12.
   319  8.6751e-02  4.1993e-02  1.0509e-01  4.1359e-04  1.7878e-03  2.6125e-01  3.4499e-01 -8.6842e+04  0:30:49 9681

 Reversed flow on 6 faces (3.6% area) of pressure-outlet 12.

  iter  continuity  x-velocity  y-velocity           k       omega  mass-balan     mass_in  pressure_m     time/iter
   320  8.6195e-02  4.1662e-02  1.0321e-01  4.1547e-04  1.7900e-03  2.5901e-01  3.4496e-01 -8.7266e+04  0:24:39 9680

 Reversed flow on 6 faces (3.6% area) of pressure-outlet 12.
   321  8.5715e-02  4.1369e-02  1.0089e-01  4.1171e-04  1.7627e-03  2.5689e-01  3.4493e-01 -8.8219e+04  0:19:43 9679

 Reversed flow on 6 faces (3.6% area) of pressure-outlet 12.
   322  8.5655e-02  4.1116e-02  9.8387e-02  4.1635e-04  1.8470e-03  2.5491e-01  3.4490e-01 -8.8338e+04  0:15:46 9678

 Reversed flow on 5 faces (2.9% area) of pressure-outlet 12.
   323  8.5268e-02  4.0694e-02  9.5869e-02  4.1764e-04  1.8517e-03  2.5306e-01  3.4488e-01 -8.8682e+04  0:12:37 9677

 Reversed flow on 5 faces (2.9% area) of pressure-outlet 12.
   324  8.5008e-02  4.0244e-02  9.3486e-02  4.1842e-04  1.8689e-03  2.5134e-01  3.4485e-01 -8.9093e+04  0:42:21 9676

 Reversed flow on 5 faces (2.9% area) of pressure-outlet 12.
   325  8.4843e-02  3.9701e-02  9.1595e-02  4.1877e-04  1.8840e-03  2.4974e-01  3.4483e-01 -8.9450e+04  0:33:52 9675

 Reversed flow on 5 faces (2.9% area) of pressure-outlet 12.
   326  8.4716e-02  3.9071e-02  9.0438e-02  4.1920e-04  1.8864e-03  2.4828e-01  3.4480e-01 -8.9795e+04  0:27:06 9674

 Reversed flow on 5 faces (2.9% area) of pressure-outlet 12.
   327  8.4594e-02  3.8378e-02  9.0142e-02  4.2000e-04  1.8869e-03  2.4696e-01  3.4478e-01 -9.0338e+04  0:21:40 9673

 Reversed flow on 5 faces (2.9% area) of pressure-outlet 12.
   328  8.4412e-02  3.7640e-02  9.0531e-02  4.2126e-04  1.8925e-03  2.4576e-01  3.4476e-01 -9.0795e+04  0:17:20 9672

 Reversed flow on 4 faces (2.3% area) of pressure-outlet 12.
   329  8.4122e-02  3.6891e-02  9.1397e-02  4.2297e-04  1.8819e-03  2.4470e-01  3.4474e-01 -9.1181e+04  0:13:52 9671

 Reversed flow on 4 faces (2.3% area) of pressure-outlet 12.
   330  8.3723e-02  3.6167e-02  9.2473e-02  4.2510e-04  1.8685e-03  2.4376e-01  3.4472e-01 -9.1736e+04  0:11:06 9670

 Reversed flow on 4 faces (2.3% area) of pressure-outlet 12.

  iter  continuity  x-velocity  y-velocity           k       omega  mass-balan     mass_in  pressure_m     time/iter
   331  8.3218e-02  3.5530e-02  9.3550e-02  4.2411e-04  1.8252e-03  2.4294e-01  3.4471e-01 -9.2849e+04  0:41:06 9669

 Reversed flow on 4 faces (2.3% area) of pressure-outlet 12.
   332  8.2851e-02  3.5187e-02  9.4449e-02  4.2859e-04  1.8765e-03  2.4227e-01  3.4469e-01 -9.3175e+04  0:32:53 9668

 Reversed flow on 4 faces (2.3% area) of pressure-outlet 12.
   333  8.2156e-02  3.4709e-02  9.5075e-02  4.2821e-04  1.8078e-03  2.4170e-01  3.4468e-01 -9.4089e+04  0:26:18 9667

 Reversed flow on 4 faces (2.3% area) of pressure-outlet 12.
   334  8.1680e-02  3.4607e-02  9.5239e-02  4.2935e-04  1.8038e-03  2.4126e-01  3.4467e-01 -9.4917e+04  0:21:02 9666

 Reversed flow on 4 faces (2.3% area) of pressure-outlet 12.
   335  8.1131e-02  3.4501e-02  9.4954e-02  4.2958e-04  1.8003e-03  2.4094e-01  3.4466e-01 -9.5568e+04  0:16:50 9665

 Reversed flow on 4 faces (2.3% area) of pressure-outlet 12.
   336  8.0444e-02  3.4456e-02  9.4038e-02  4.2867e-04  1.8206e-03  2.4074e-01  3.4465e-01 -9.6062e+04  0:13:28 9664

 Reversed flow on 4 faces (2.3% area) of pressure-outlet 12.
   337  7.9673e-02  3.4471e-02  9.2447e-02  4.2653e-04  1.8478e-03  2.4066e-01  3.4464e-01 -9.6554e+04  0:42:59 9663

 Reversed flow on 4 faces (2.3% area) of pressure-outlet 12.
   338  7.8805e-02  3.4535e-02  8.9995e-02  4.2616e-04  1.9459e-03  2.4070e-01  3.4463e-01 -9.6641e+04  0:34:23 9662

 Reversed flow on 4 faces (2.3% area) of pressure-outlet 12.
   339  7.7666e-02  3.4504e-02  8.6526e-02  4.2310e-04  2.0214e-03  2.4084e-01  3.4462e-01 -9.6706e+04  0:27:30 9661

 Reversed flow on 4 faces (2.3% area) of pressure-outlet 12.
   340  7.6598e-02  3.4483e-02  8.2878e-02  4.1799e-04  2.2153e-03  2.4109e-01  3.4461e-01 -9.6691e+04  0:22:00 9660

 Reversed flow on 4 faces (2.3% area) of pressure-outlet 12.
   341  7.5661e-02  3.4441e-02  7.9197e-02  4.1053e-04  2.4749e-03  2.4144e-01  3.4461e-01 -9.6606e+04  0:17:36 9659

 Reversed flow on 4 faces (2.3% area) of pressure-outlet 12.

  iter  continuity  x-velocity  y-velocity           k       omega  mass-balan     mass_in  pressure_m     time/iter
   342  7.4968e-02  3.4389e-02  7.5788e-02  4.0103e-04  2.7294e-03  2.4189e-01  3.4461e-01 -9.6421e+04  3:27:14 9658

 Reversed flow on 4 faces (2.3% area) of pressure-outlet 12.
   343  7.4614e-02  3.4272e-02  7.3055e-02  3.8984e-04  2.9375e-03  2.4244e-01  3.4460e-01 -9.6141e+04  2:45:46 9657

 Reversed flow on 4 faces (2.3% area) of pressure-outlet 12.
   344  7.4618e-02  3.4031e-02  7.1985e-02  3.7766e-04  3.0714e-03  2.4308e-01  3.4460e-01 -9.5738e+04  2:12:36 9656

 Reversed flow on 4 faces (2.3% area) of pressure-outlet 12.
   345  7.4769e-02  3.3619e-02  7.3122e-02  3.6544e-04  3.3309e-03  2.4382e-01  3.4460e-01 -9.5212e+04  2:18:15 9655

 Reversed flow on 4 faces (2.3% area) of pressure-outlet 12.
   346  7.4853e-02  3.3046e-02  7.5524e-02  3.5224e-04  3.4875e-03  2.4465e-01  3.4460e-01 -9.4567e+04  1:50:36 9654

 Reversed flow on 4 faces (2.3% area) of pressure-outlet 12.
   347  7.4845e-02  3.2375e-02  7.8652e-02  3.3986e-04  3.4743e-03  2.4558e-01  3.4461e-01 -9.3976e+04  1:28:28 9653

 Reversed flow on 4 faces (2.3% area) of pressure-outlet 12.
   348  7.4652e-02  3.1696e-02  8.2239e-02  3.3052e-04  3.6477e-03  2.4659e-01  3.4461e-01 -9.3187e+04  1:10:46 9652

 Reversed flow on 4 faces (2.3% area) of pressure-outlet 12.
   349  7.4215e-02  3.1114e-02  8.6031e-02  3.2472e-04  3.7285e-03  2.4768e-01  3.4461e-01 -9.2325e+04  0:56:36 9651

 Reversed flow on 5 faces (2.9% area) of pressure-outlet 12.
   350  7.3623e-02  3.0733e-02  8.9609e-02  3.2205e-04  3.7043e-03  2.4886e-01  3.4462e-01 -9.1462e+04  0:45:17 9650

 Reversed flow on 5 faces (2.9% area) of pressure-outlet 12.
   351  7.3371e-02  3.0640e-02  9.2681e-02  3.2372e-04  3.8467e-03  2.5013e-01  3.4462e-01 -9.0463e+04  0:36:13 9649

 Reversed flow on 5 faces (2.9% area) of pressure-outlet 12.
   352  7.3709e-02  3.1085e-02  9.5293e-02  3.2634e-04  3.8013e-03  2.5147e-01  3.4463e-01 -8.9433e+04  1:01:08 9648

 Reversed flow on 5 faces (2.9% area) of pressure-outlet 12.

  iter  continuity  x-velocity  y-velocity           k       omega  mass-balan     mass_in  pressure_m     time/iter
   353  7.4400e-02  3.1957e-02  9.7621e-02  3.2764e-04  3.9174e-03  2.5289e-01  3.4463e-01 -8.8461e+04  0:48:54 9647

 Reversed flow on 5 faces (2.9% area) of pressure-outlet 12.
   354  7.5185e-02  3.2915e-02  9.9717e-02  3.2626e-04  3.9473e-03  2.5439e-01  3.4464e-01 -8.7476e+04  0:39:07 9646

 Reversed flow on 6 faces (3.6% area) of pressure-outlet 12.
   355  7.5939e-02  3.3874e-02  1.0193e-01  3.2206e-04  3.9789e-03  2.5597e-01  3.4465e-01 -8.6520e+04  0:31:17 9645

 Reversed flow on 6 faces (3.6% area) of pressure-outlet 12.
   356  7.6684e-02  3.4799e-02  1.0401e-01  3.1503e-04  4.0540e-03  2.5762e-01  3.4466e-01 -8.5453e+04  0:25:02 9644

 Reversed flow on 6 faces (3.6% area) of pressure-outlet 12.
   357  7.7406e-02  3.5656e-02  1.0580e-01  3.0805e-04  4.0369e-03  2.5934e-01  3.4466e-01 -8.4513e+04  0:20:01 9643

 Reversed flow on 7 faces (4.2% area) of pressure-outlet 12.
   358  7.8174e-02  3.6437e-02  1.0725e-01  3.0337e-04  4.1171e-03  2.6114e-01  3.4467e-01 -8.3285e+04  0:48:09 9642

 Reversed flow on 7 faces (4.2% area) of pressure-outlet 12.
   359  7.9057e-02  3.7144e-02  1.0862e-01  3.0061e-04  4.0995e-03  2.6301e-01  3.4468e-01 -8.2336e+04  0:38:31 9641

 Reversed flow on 7 faces (4.2% area) of pressure-outlet 12.
   360  7.9947e-02  3.7819e-02  1.1013e-01  2.9860e-04  4.1855e-03  2.6494e-01  3.4469e-01 -8.1197e+04  0:30:49 9640

 Reversed flow on 8 faces (4.9% area) of pressure-outlet 12.
   361  8.0818e-02  3.8472e-02  1.1206e-01  2.9720e-04  4.1480e-03  2.6694e-01  3.4470e-01 -8.0110e+04  0:24:39 9639

 Reversed flow on 8 faces (4.9% area) of pressure-outlet 12.
   362  8.1667e-02  3.9057e-02  1.1446e-01  2.9631e-04  4.2216e-03  2.6901e-01  3.4471e-01 -7.8933e+04  0:19:43 9638

 Reversed flow on 8 faces (4.9% area) of pressure-outlet 12.
   363  8.2492e-02  3.9578e-02  1.1735e-01  2.9603e-04  4.1640e-03  2.7114e-01  3.4472e-01 -7.7841e+04  0:15:46 9637

 Reversed flow on 9 faces (5.6% area) of pressure-outlet 12.

  iter  continuity  x-velocity  y-velocity           k       omega  mass-balan     mass_in  pressure_m     time/iter
   364  8.3367e-02  4.0046e-02  1.2032e-01  2.9632e-04  4.2183e-03  2.7333e-01  3.4473e-01 -7.6786e+04  0:12:37 9636

 Reversed flow on 9 faces (5.6% area) of pressure-outlet 12.
   365  8.4253e-02  4.0442e-02  1.2315e-01  2.9689e-04  4.1402e-03  2.7559e-01  3.4474e-01 -7.5569e+04  0:10:05 9635

 Reversed flow on 9 faces (5.6% area) of pressure-outlet 12.
   366  8.5130e-02  4.0789e-02  1.2550e-01  2.9799e-04  4.1780e-03  2.7790e-01  3.4475e-01 -7.4395e+04  0:40:11 9634

 Reversed flow on 9 faces (5.6% area) of pressure-outlet 12.
   367  8.5919e-02  4.1088e-02  1.2741e-01  2.9957e-04  4.0872e-03  2.8026e-01  3.4476e-01 -7.3210e+04  0:32:09 9633

 Reversed flow on 10 faces (6.3% area) of pressure-outlet 12.
   368  8.6556e-02  4.1346e-02  1.2879e-01  3.0166e-04  4.1115e-03  2.8268e-01  3.4477e-01 -7.2108e+04  0:25:43 9632

 Reversed flow on 10 faces (6.3% area) of pressure-outlet 12.
   369  8.7141e-02  4.1587e-02  1.2985e-01  3.0411e-04  4.0121e-03  2.8515e-01  3.4478e-01 -7.0972e+04  0:20:34 9631

 Reversed flow on 10 faces (6.3% area) of pressure-outlet 12.
   370  8.7554e-02  4.1801e-02  1.3059e-01  3.0695e-04  4.0330e-03  2.8766e-01  3.4479e-01 -6.9958e+04  0:16:27 9630

 Reversed flow on 10 faces (6.3% area) of pressure-outlet 12.
   371  8.7985e-02  4.1989e-02  1.3119e-01  3.0991e-04  3.9292e-03  2.9022e-01  3.4480e-01 -6.8940e+04  0:13:10 9629

 Reversed flow on 11 faces (7.0% area) of pressure-outlet 12.
   372  8.8343e-02  4.2124e-02  1.3152e-01  3.1310e-04  3.9501e-03  2.9282e-01  3.4480e-01 -6.7741e+04  0:10:32 9628

 Reversed flow on 11 faces (7.0% area) of pressure-outlet 12.
   373  8.8774e-02  4.2226e-02  1.3174e-01  3.1649e-04  3.8452e-03  2.9545e-01  3.4481e-01 -6.6777e+04  0:08:25 9627

 Reversed flow on 12 faces (7.7% area) of pressure-outlet 12.
   374  8.9099e-02  4.2295e-02  1.3188e-01  3.2025e-04  3.8712e-03  2.9812e-01  3.4482e-01 -6.5762e+04  0:06:44 9626

 Reversed flow on 13 faces (8.5% area) of pressure-outlet 12.

  iter  continuity  x-velocity  y-velocity           k       omega  mass-balan     mass_in  pressure_m     time/iter
   375  8.9405e-02  4.2333e-02  1.3194e-01  3.2432e-04  3.7607e-03  3.0081e-01  3.4482e-01 -6.4762e+04  0:37:28 9625

 Reversed flow on 13 faces (8.5% area) of pressure-outlet 12.
   376  8.9686e-02  4.2345e-02  1.3197e-01  3.2889e-04  3.7982e-03  3.0353e-01  3.4483e-01 -6.3802e+04  0:29:58 9624

 Reversed flow on 15 faces (10.0% area) of pressure-outlet 12.
   377  8.9945e-02  4.2337e-02  1.3194e-01  3.3365e-04  3.6893e-03  3.0627e-01  3.4484e-01 -6.2761e+04  0:23:59 9623

 Reversed flow on 16 faces (10.8% area) of pressure-outlet 12.
   378  9.0277e-02  4.2300e-02  1.3209e-01  3.3888e-04  3.7349e-03  3.0904e-01  3.4484e-01 -6.1807e+04  0:19:11 9622

 Reversed flow on 18 faces (12.3% area) of pressure-outlet 12.
   379  9.0471e-02  4.2259e-02  1.3219e-01  3.4416e-04  3.6251e-03  3.1181e-01  3.4485e-01 -6.0810e+04  0:15:21 9621

 Reversed flow on 21 faces (14.8% area) of pressure-outlet 12.
   380  9.0670e-02  4.2201e-02  1.3217e-01  3.4966e-04  3.6700e-03  3.1460e-01  3.4485e-01 -5.9853e+04  0:12:16 9620

 Reversed flow on 25 faces (18.2% area) of pressure-outlet 12.
   381  9.0843e-02  4.2126e-02  1.3197e-01  3.5507e-04  3.5709e-03  3.1741e-01  3.4486e-01 -5.8792e+04  0:41:53 9619

 Reversed flow on 31 faces (23.8% area) of pressure-outlet 12.
   382  9.0968e-02  4.2051e-02  1.3161e-01  3.6045e-04  3.6145e-03  3.2023e-01  3.4486e-01 -5.7880e+04  0:33:30 9618

 Reversed flow on 36 faces (28.7% area) of pressure-outlet 12.
   383  9.1043e-02  4.1958e-02  1.3114e-01  3.6540e-04  3.5320e-03  3.2306e-01  3.4486e-01 -5.6766e+04  0:26:48 9617

 Reversed flow on 40 faces (32.9% area) of pressure-outlet 12.
   384  9.1034e-02  4.1859e-02  1.3039e-01  3.7024e-04  3.5480e-03  3.2589e-01  3.4487e-01 -5.5872e+04  0:21:26 9616

 Reversed flow on 44 faces (37.2% area) of pressure-outlet 12.
   385  9.0956e-02  4.1761e-02  1.2967e-01  3.7459e-04  3.5154e-03  3.2873e-01  3.4487e-01 -5.4824e+04  0:17:09 9615

 Reversed flow on 47 faces (40.6% area) of pressure-outlet 12.

  iter  continuity  x-velocity  y-velocity           k       omega  mass-balan     mass_in  pressure_m     time/iter
   386  9.0839e-02  4.1660e-02  1.2879e-01  3.7880e-04  3.4670e-03  3.3155e-01  3.4487e-01 -5.3946e+04  0:13:43 9614

 Reversed flow on 50 faces (44.2% area) of pressure-outlet 12.
   387  9.0724e-02  4.1553e-02  1.2794e-01  3.8262e-04  3.4854e-03  3.3437e-01  3.4487e-01 -5.2978e+04  0:10:58 9613

 Reversed flow on 52 faces (46.6% area) of pressure-outlet 12.
   388  9.0604e-02  4.1469e-02  1.2699e-01  3.8620e-04  3.3989e-03  3.3717e-01  3.4487e-01 -5.2338e+04  0:08:47 9612

 Reversed flow on 54 faces (49.1% area) of pressure-outlet 12.
   389  9.0487e-02  4.1399e-02  1.2619e-01  3.8953e-04  3.4474e-03  3.3995e-01  3.4487e-01 -5.1491e+04  0:39:03 9611

 Reversed flow on 56 faces (51.6% area) of pressure-outlet 12.
   390  9.0390e-02  4.1346e-02  1.2526e-01  3.9251e-04  3.3414e-03  3.4274e-01  3.4488e-01 -5.0774e+04  0:31:15 9610

 Reversed flow on 58 faces (54.2% area) of pressure-outlet 12.
   391  9.0242e-02  4.1292e-02  1.2430e-01  3.9559e-04  3.4075e-03  3.4551e-01  3.4488e-01 -4.9914e+04  0:24:59 9609

 Reversed flow on 60 faces (56.8% area) of pressure-outlet 12.
   392  9.0139e-02  4.1258e-02  1.2331e-01  3.9836e-04  3.3155e-03  3.4828e-01  3.4488e-01 -4.9125e+04  0:19:59 9608

 Reversed flow on 61 faces (58.1% area) of pressure-outlet 12.
   393  9.0012e-02  4.1245e-02  1.2225e-01  4.0116e-04  3.3580e-03  3.5102e-01  3.4488e-01 -4.8386e+04  0:48:01 9607

 Reversed flow on 63 faces (60.8% area) of pressure-outlet 12.
   394  8.9899e-02  4.1235e-02  1.2124e-01  4.0356e-04  3.3244e-03  3.5378e-01  3.4487e-01 -4.7609e+04  0:38:24 9606

 Reversed flow on 64 faces (62.2% area) of pressure-outlet 12.
   395  8.9753e-02  4.1250e-02  1.2019e-01  4.0592e-04  3.2799e-03  3.5650e-01  3.4487e-01 -4.6702e+04  0:30:43 9605

 Reversed flow on 66 faces (65.0% area) of pressure-outlet 12.
   396  8.9613e-02  4.1260e-02  1.1911e-01  4.0821e-04  3.3167e-03  3.5926e-01  3.4487e-01 -4.5778e+04  0:56:35 9604

 Reversed flow on 67 faces (66.3% area) of pressure-outlet 12.

  iter  continuity  x-velocity  y-velocity           k       omega  mass-balan     mass_in  pressure_m     time/iter
   397  8.9515e-02  4.1291e-02  1.1808e-01  4.1028e-04  3.2092e-03  3.6197e-01  3.4487e-01 -4.4945e+04  0:45:16 9603

[...]
(cx-gui-do cx-set-expression-entry "Expression*Table1*ExpressionEntry3(Definition)" '("IF(AbsolutePressure >= 3.9200002887589997e+06 [Pa],  5.1115565177555629e+02 + 4.2203083509694920e+01 * (AbsolutePressure / 3.9200002887589997e+06 [Pa] - 1.0000000000000000e+00),  IF(AbsolutePressure >= 1.9000000000000000e+05 [Pa],  IF(AbsolutePressure >= 2.5075222732414827e+06 [Pa],  IF(AbsolutePressure >= 2.5798512507885122e+06 [Pa],  4.6895256826586137e+02 + (AbsolutePressure / 3.9200002887589997e+06 [Pa]) * (4.2203083509694920e+01),  -2.7937073658982170e+08 + (AbsolutePressure / 3.9200002887589997e+06 [Pa]) * (2.2177150415666552e+09 + (AbsolutePressure / 3.9200002887589997e+06 [Pa]) * (-7.0244476608076916e+09 + (AbsolutePressure / 3.9200002887589997e+06 [Pa]) * (1.1098948666485916e+10 + (AbsolutePressure / 3.9200002887589997e+06 [Pa]) * (-8.7493657214777851e+09 + (AbsolutePressure / 3.9200002887589997e+06 [Pa]) * (2.7532175867347755e+09)))))),  1.1684899005554996e+00 + (AbsolutePressure / 3.9200002887589997e+06 [Pa]) * (3.9778491650541957e+02 + (AbsolutePressure / 3.9200002887589997e+06 [Pa]) * (5.2946380199380314e+01 + (AbsolutePressure / 3.9200002887589997e+06 [Pa]) * (1.5366035247149912e+03 + (AbsolutePressure / 3.9200002887589997e+06 [Pa]) * (-4.8495035293715819e+03 + (AbsolutePressure / 3.9200002887589997e+06 [Pa]) * (1.1297024962909230e+04 + (AbsolutePressure / 3.9200002887589997e+06 [Pa]) * (-1.5517352008016178e+04 + (AbsolutePressure / 3.9200002887589997e+06 [Pa]) * (1.1884648954462285e+04 + (AbsolutePressure / 3.9200002887589997e+06 [Pa]) * (-3.8044271105308721e+03))))))))),  2.0724299277822283e+01 * exp((AbsolutePressure / 3.9200002887589997e+06 [Pa] - 0.0484693841847013) / 5.0322913608489873e-02))) * 1 [kg/m^3]" . 1))
(cx-gui-do cx-activate-item "Expression*PanelButtons*PushButton2(Cancel)")
(cx-gui-do cx-set-list-tree-selections "NavigationPane*Frame2*Table1*List_Tree2" (list "Setup|Named Expressions|rhomass_barotropic"))
(cx-gui-do cx-set-list-tree-selections "NavigationPane*Frame2*Table1*List_Tree2" (list "Setup|Named Expressions|rhomass_barotropic"))
(cx-gui-do cx-activate-item "NavigationPane*Frame2*Table1*List_Tree2")
(cx-gui-do cx-set-list-tree-selections "NavigationPane*Frame2*Table1*List_Tree2" (list "Setup|Named Expressions|rhomass_barotropic"))
(cx-gui-do cx-set-expression-entry "Expression*Table1*ExpressionEntry3(Definition)" '("IF(AbsolutePressure >= 3.9200002887589997e+06 [Pa],  5.1115565177555629e+02 + 4.2203083509694920e+01 * (AbsolutePressure / 3.9200002887589997e+06 [Pa] - 1.0000000000000000e+00),  IF(AbsolutePressure >= 1.9000000000000000e+05 [Pa],  IF(AbsolutePressure >= 2.5075222732414827e+06 [Pa],  IF(AbsolutePressure >= 2.5798512507885122e+06 [Pa],  4.6895256826586137e+02 + (AbsolutePressure / 3.9200002887589997e+06 [Pa]) * (4.2203083509694920e+01),  -2.7937073658982170e+08 + (AbsolutePressure / 3.9200002887589997e+06 [Pa]) * (2.2177150415666552e+09 + (AbsolutePressure / 3.9200002887589997e+06 [Pa]) * (-7.0244476608076916e+09 + (AbsolutePressure / 3.9200002887589997e+06 [Pa]) * (1.1098948666485916e+10 + (AbsolutePressure / 3.9200002887589997e+06 [Pa]) * (-8.7493657214777851e+09 + (AbsolutePressure / 3.9200002887589997e+06 [Pa]) * (2.7532175867347755e+09)))))),  1.1684899005554996e+00 + (AbsolutePressure / 3.9200002887589997e+06 [Pa]) * (3.9778491650541957e+02 + (AbsolutePressure / 3.9200002887589997e+06 [Pa]) * (5.2946380199380314e+01 + (AbsolutePressure / 3.9200002887589997e+06 [Pa]) * (1.5366035247149912e+03 + (AbsolutePressure / 3.9200002887589997e+06 [Pa]) * (-4.8495035293715819e+03 + (AbsolutePressure / 3.9200002887589997e+06 [Pa]) * (1.1297024962909230e+04 + (AbsolutePressure / 3.9200002887589997e+06 [Pa]) * (-1.5517352008016178e+04 + (AbsolutePressure / 3.9200002887589997e+06 [Pa]) * (1.1884648954462285e+04 + (AbsolutePressure / 3.9200002887589997e+06 [Pa]) * (-3.8044271105308721e+03))))))))),  2.0724299277822283e+01 * exp((AbsolutePressure / 3.9200002887589997e+06 [Pa] - 0.0484693841847013) / 5.0322913608489873e-02))) * 1 [kg/m^3]" . 1))
(cx-gui-do cx-set-expression-entry "Expression*Table1*ExpressionEntry3(Definition)" '("IF(AbsolutePressure >= 3.9200002887589997e+06 [Pa],  5.1115565177555629e+02 + 4.2203083509694920e+01 * (AbsolutePressure / 3.9200002887589997e+06 [Pa] - 1.0000000000000000e+00),  IF(AbsolutePressure >= 1.9000000000000000e+05 [Pa],  IF(AbsolutePressure >= 2.5075222732414827e+06 [Pa],  IF(AbsolutePressure >= 2.5798512507885122e+06 [Pa],  4.6895256826586137e+02 + (AbsolutePressure / 3.9200002887589997e+06 [Pa]) * (4.2203083509694920e+01),  -2.7937073658982170e+08 + (AbsolutePressure / 3.9200002887589997e+06 [Pa]) * (2.2177150415666552e+09 + (AbsolutePressure / 3.9200002887589997e+06 [Pa]) * (-7.0244476608076916e+09 + (AbsolutePressure / 3.9200002887589997e+06 [Pa]) * (1.1098948666485916e+10 + (AbsolutePressure / 3.9200002887589997e+06 [Pa]) * (-8.7493657214777851e+09 + (AbsolutePressure / 3.9200002887589997e+06 [Pa]) * (2.7532175867347755e+09)))))),  1.1684899005554996e+00 + (AbsolutePressure / 3.9200002887589997e+06 [Pa]) * (3.9778491650541957e+02 + (AbsolutePressure / 3.9200002887589997e+06 [Pa]) * (5.2946380199380314e+01 + (AbsolutePressure / 3.9200002887589997e+06 [Pa]) * (1.5366035247149912e+03 + (AbsolutePressure / 3.9200002887589997e+06 [Pa]) * (-4.8495035293715819e+03 + (AbsolutePressure / 3.9200002887589997e+06 [Pa]) * (1.1297024962909230e+04 + (AbsolutePressure / 3.9200002887589997e+06 [Pa]) * (-1.5517352008016178e+04 + (AbsolutePressure / 3.9200002887589997e+06 [Pa]) * (1.1884648954462285e+04 + (AbsolutePressure / 3.9200002887589997e+06 [Pa]) * (-3.8044271105308721e+03))))))))),  2.0724299277822283e+01 * exp((AbsolutePressure / 3.9200002887589997e+06 [Pa] - 0.0484693841847013) / 5.0322913608489873e-02))) * 1 [kg/m^3]" . 1))
(cx-gui-do cx-set-expression-entry "Expression*Table1*ExpressionEntry3(Definition)" '("IF(AbsolutePressure >= 3.9200002887589997e+06 [Pa],  5.1115565177555629e+02 + 4.2203083509694920e+01 * (AbsolutePressure / 3.9200002887589997e+06 [Pa] - 1.0000000000000000e+00),  IF(AbsolutePressure >= 1.9000000000000000e+05 [Pa],  IF(AbsolutePressure >= 2.5075222732414827e+06 [Pa],  IF(AbsolutePressure >= 2.5798512507885122e+06 [Pa],  4.6895256826586137e+02 + (AbsolutePressure / 3.9200002887589997e+06 [Pa]) * (4.2203083509694920e+01),  -2.7937073658982170e+08 + (AbsolutePressure / 3.9200002887589997e+06 [Pa]) * (2.2177150415666552e+09 + (AbsolutePressure / 3.9200002887589997e+06 [Pa]) * (-7.0244476608076916e+09 + (AbsolutePressure / 3.9200002887589997e+06 [Pa]) * (1.1098948666485916e+10 + (AbsolutePressure / 3.9200002887589997e+06 [Pa]) * (-8.7493657214777851e+09 + (AbsolutePressure / 3.9200002887589997e+06 [Pa]) * (2.7532175867347755e+09)))))),  1.1684899005554996e+00 + (AbsolutePressure / 3.9200002887589997e+06 [Pa]) * (3.9778491650541957e+02 + (AbsolutePressure / 3.9200002887589997e+06 [Pa]) * (5.2946380199380314e+01 + (AbsolutePressure / 3.9200002887589997e+06 [Pa]) * (1.5366035247149912e+03 + (AbsolutePressure / 3.9200002887589997e+06 [Pa]) * (-4.8495035293715819e+03 + (AbsolutePressure / 3.9200002887589997e+06 [Pa]) * (1.1297024962909230e+04 + (AbsolutePressure / 3.9200002887589997e+06 [Pa]) * (-1.5517352008016178e+04 + (AbsolutePressure / 3.9200002887589997e+06 [Pa]) * (1.1884648954462285e+04 + (AbsolutePressure / 3.9200002887589997e+06 [Pa]) * (-3.8044271105308721e+03))))))))),  2.0724299277822283e+01 * exp((AbsolutePressure / 3.9200002887589997e+06 [Pa] - 0.0484693841847013) / 5.0322913608489873e-02))) * 1 [kg/m^3]" . 1))
(cx-gui-do cx-set-expression-entry "Expression*Table1*ExpressionEntry3(Definition)" '("IF(AbsolutePressure >= 3.9200002887589997e+06 [Pa],  5.1115565177555629e+02 + 4.2203083509694920e+01 * (AbsolutePressure / 3.9200002887589997e+06 [Pa] - 1.0000000000000000e+00),  IF(AbsolutePressure >= 1.9000000000000000e+05 [Pa],  IF(AbsolutePressure >= 2.5075222732414827e+06 [Pa],  IF(AbsolutePressure >= 2.5798512507885122e+06 [Pa],  4.6895256826586137e+02 + (AbsolutePressure / 3.9200002887589997e+06 [Pa]) * (4.2203083509694920e+01),  -2.7937073658982170e+08 + (AbsolutePressure / 3.9200002887589997e+06 [Pa]) * (2.2177150415666552e+09 + (AbsolutePressure / 3.9200002887589997e+06 [Pa]) * (-7.0244476608076916e+09 + (AbsolutePressure / 3.9200002887589997e+06 [Pa]) * (1.1098948666485916e+10 + (AbsolutePressure / 3.9200002887589997e+06 [Pa]) * (-8.7493657214777851e+09 + (AbsolutePressure / 3.9200002887589997e+06 [Pa]) * (2.7532175867347755e+09)))))),  1.1684899005554996e+00 + (AbsolutePressure / 3.9200002887589997e+06 [Pa]) * (3.9778491650541957e+02 + (AbsolutePressure / 3.9200002887589997e+06 [Pa]) * (5.2946380199380314e+01 + (AbsolutePressure / 3.9200002887589997e+06 [Pa]) * (1.5366035247149912e+03 + (AbsolutePressure / 3.9200002887589997e+06 [Pa]) * (-4.8495035293715819e+03 + (AbsolutePressure / 3.9200002887589997e+06 [Pa]) * (1.1297024962909230e+04 + (AbsolutePressure / 3.9200002887589997e+06 [Pa]) * (-1.5517352008016178e+04 + (AbsolutePressure / 3.9200002887589997e+06 [Pa]) * (1.1884648954462285e+04 + (AbsolutePressure / 3.9200002887589997e+06 [Pa]) * (-3.8044271105308721e+03))))))))),  2.0724299277822283e+01 * exp((AbsolutePressure / 3.9200002887589997e+06 [Pa] - 0.0484693841847013) / 5.0322913608489873e-02))) * 1 [kg/m^3]" . 1))
(cx-gui-do cx-set-expression-entry "Expression*Table1*ExpressionEntry3(Definition)" '("IF(AbsolutePressure >= 3.9200002887589997e+06 [Pa],  5.1115565177555629e+02 + 4.2203083509694920e+01 * (AbsolutePressure / 3.9200002887589997e+06 [Pa] - 1.0000000000000000e+00),  IF(AbsolutePressure >= 1.9000000000000000e+05 [Pa],  IF(AbsolutePressure >= 2.5075222732414827e+06 [Pa],  IF(AbsolutePressure >= 2.5798512507885122e+06 [Pa],  4.6895256826586137e+02 + (AbsolutePressure / 3.9200002887589997e+06 [Pa]) * (4.2203083509694920e+01),  -2.7937073658982170e+08 + (AbsolutePressure / 3.9200002887589997e+06 [Pa]) * (2.2177150415666552e+09 + (AbsolutePressure / 3.9200002887589997e+06 [Pa]) * (-7.0244476608076916e+09 + (AbsolutePressure / 3.9200002887589997e+06 [Pa]) * (1.1098948666485916e+10 + (AbsolutePressure / 3.9200002887589997e+06 [Pa]) * (-8.7493657214777851e+09 + (AbsolutePressure / 3.9200002887589997e+06 [Pa]) * (2.7532175867347755e+09)))))),  1.1684899005554996e+00 + (AbsolutePressure / 3.9200002887589997e+06 [Pa]) * (3.9778491650541957e+02 + (AbsolutePressure / 3.9200002887589997e+06 [Pa]) * (5.2946380199380314e+01 + (AbsolutePressure / 3.9200002887589997e+06 [Pa]) * (1.5366035247149912e+03 + (AbsolutePressure / 3.9200002887589997e+06 [Pa]) * (-4.8495035293715819e+03 + (AbsolutePressure / 3.9200002887589997e+06 [Pa]) * (1.1297024962909230e+04 + (AbsolutePressure / 3.9200002887589997e+06 [Pa]) * (-1.5517352008016178e+04 + (AbsolutePressure / 3.9200002887589997e+06 [Pa]) * (1.1884648954462285e+04 + (AbsolutePressure / 3.9200002887589997e+06 [Pa]) * (-3.8044271105308721e+03))))))))),  2.0724299277822283e+01 * exp((AbsolutePressure / 3.9200002887589997e+06 [Pa] - 0.0484693841847013) / 5.0322913608489873e-02))) * 1 [kg/m^3]" . 1))
(cx-gui-do cx-set-expression-entry "Expression*Table1*ExpressionEntry3(Definition)" '("IF(AbsolutePressure >= 3.9200002887589997e+06 [Pa],  5.1115565177555629e+02 + 4.2203083509694920e+01 * (AbsolutePressure / 3.9200002887589997e+06 [Pa] - 1.0000000000000000e+00),  IF(AbsolutePressure >= 1.9000000000000000e+05 [Pa],  IF(AbsolutePressure >= 2.5075222732414827e+06 [Pa],  IF(AbsolutePressure >= 2.5798512507885122e+06 [Pa],  4.6895256826586137e+02 + (AbsolutePressure / 3.9200002887589997e+06 [Pa]) * (4.2203083509694920e+01),  -2.7937073658982170e+08 + (AbsolutePressure / 3.9200002887589997e+06 [Pa]) * (2.2177150415666552e+09 + (AbsolutePressure / 3.9200002887589997e+06 [Pa]) * (-7.0244476608076916e+09 + (AbsolutePressure / 3.9200002887589997e+06 [Pa]) * (1.1098948666485916e+10 + (AbsolutePressure / 3.9200002887589997e+06 [Pa]) * (-8.7493657214777851e+09 + (AbsolutePressure / 3.9200002887589997e+06 [Pa]) * (2.7532175867347755e+09)))))),  1.1684899005554996e+00 + (AbsolutePressure / 3.9200002887589997e+06 [Pa]) * (3.9778491650541957e+02 + (AbsolutePressure / 3.9200002887589997e+06 [Pa]) * (5.2946380199380314e+01 + (AbsolutePressure / 3.9200002887589997e+06 [Pa]) * (1.5366035247149912e+03 + (AbsolutePressure / 3.9200002887589997e+06 [Pa]) * (-4.8495035293715819e+03 + (AbsolutePressure / 3.9200002887589997e+06 [Pa]) * (1.1297024962909230e+04 + (AbsolutePressure / 3.9200002887589997e+06 [Pa]) * (-1.5517352008016178e+04 + (AbsolutePressure / 3.9200002887589997e+06 [Pa]) * (1.1884648954462285e+04 + (AbsolutePressure / 3.9200002887589997e+06 [Pa]) * (-3.8044271105308721e+03))))))))),  2.0724299277822283e+01 * exp((AbsolutePressure / 3.9200002887589997e+06 [Pa] - 0.0484693841847013) / 5.0322913608489873e-02))) * 1 [kg/m^3]" . 1))
(cx-gui-do cx-set-expression-entry "Expression*Table1*ExpressionEntry3(Definition)" '("IF(AbsolutePressure >= 3.9200002887589997e+06 [Pa],  5.1115565177555629e+02 + 4.2203083509694920e+01 * (AbsolutePressure / 3.9200002887589997e+06 [Pa] - 1.0000000000000000e+00),  IF(AbsolutePressure >= 1.9000000000000000e+05 [Pa],  IF(AbsolutePressure >= 2.5075222732414827e+06 [Pa],  IF(AbsolutePressure >= 2.5798512507885122e+06 [Pa],  4.6895256826586137e+02 + (AbsolutePressure / 3.9200002887589997e+06 [Pa]) * (4.2203083509694920e+01),  -2.7937073658982170e+08 + (AbsolutePressure / 3.9200002887589997e+06 [Pa]) * (2.2177150415666552e+09 + (AbsolutePressure / 3.9200002887589997e+06 [Pa]) * (-7.0244476608076916e+09 + (AbsolutePressure / 3.9200002887589997e+06 [Pa]) * (1.1098948666485916e+10 + (AbsolutePressure / 3.9200002887589997e+06 [Pa]) * (-8.7493657214777851e+09 + (AbsolutePressure / 3.9200002887589997e+06 [Pa]) * (2.7532175867347755e+09)))))),  1.1684899005554996e+00 + (AbsolutePressure / 3.9200002887589997e+06 [Pa]) * (3.9778491650541957e+02 + (AbsolutePressure / 3.9200002887589997e+06 [Pa]) * (5.2946380199380314e+01 + (AbsolutePressure / 3.9200002887589997e+06 [Pa]) * (1.5366035247149912e+03 + (AbsolutePressure / 3.9200002887589997e+06 [Pa]) * (-4.8495035293715819e+03 + (AbsolutePressure / 3.9200002887589997e+06 [Pa]) * (1.1297024962909230e+04 + (AbsolutePressure / 3.9200002887589997e+06 [Pa]) * (-1.5517352008016178e+04 + (AbsolutePressure / 3.9200002887589997e+06 [Pa]) * (1.1884648954462285e+04 + (AbsolutePressure / 3.9200002887589997e+06 [Pa]) * (-3.8044271105308721e+03))))))))),  2.0724299277822283e+01 * exp((AbsolutePressure / 3.9200002887589997e+06 [Pa] - 0.0484693841847013) / 5.0322913608489873e-02))) * 1 [kg/m^3]" . 1))
(cx-gui-do cx-activate-item "Expression*PanelButtons*PushButton2(Cancel)")
(cx-gui-do cx-set-list-tree-selections "NavigationPane*Frame2*Table1*List_Tree2" (list "Setup|Named Expressions|rhomass_barotropic"))
(cx-gui-do cx-set-list-tree-selections "NavigationPane*Frame2*Table1*List_Tree2" (list "Setup|Named Expressions|rhomass_barotropic"))
(cx-gui-do cx-activate-item "NavigationPane*Frame2*Table1*List_Tree2")
(cx-gui-do cx-set-list-tree-selections "NavigationPane*Frame2*Table1*List_Tree2" (list "Setup|Named Expressions|rhomass_barotropic"))
(cx-gui-do cx-set-expression-entry "Expression*Table1*ExpressionEntry3(Definition)" '("IF(AbsolutePressure >= 3.9200002887589997e+06 [Pa],  5.1115565177555629e+02 + 4.2203083509694920e+01 * (AbsolutePressure / 3.9200002887589997e+06 [Pa] - 1.0000000000000000e+00),  IF(AbsolutePressure >= 1.9000000000000000e+05 [Pa],  IF(AbsolutePressure >= 2.5075222732414827e+06 [Pa],  IF(AbsolutePressure >= 2.5798512507885122e+06 [Pa],  4.6895256826586137e+02 + (AbsolutePressure / 3.9200002887589997e+06 [Pa]) * (4.2203083509694920e+01),  -2.7937073658982170e+08 + (AbsolutePressure / 3.9200002887589997e+06 [Pa]) * (2.2177150415666552e+09 + (AbsolutePressure / 3.9200002887589997e+06 [Pa]) * (-7.0244476608076916e+09 + (AbsolutePressure / 3.9200002887589997e+06 [Pa]) * (1.1098948666485916e+10 + (AbsolutePressure / 3.9200002887589997e+06 [Pa]) * (-8.7493657214777851e+09 + (AbsolutePressure / 3.9200002887589997e+06 [Pa]) * (2.7532175867347755e+09)))))),  1.1684899005554996e+00 + (AbsolutePressure / 3.9200002887589997e+06 [Pa]) * (3.9778491650541957e+02 + (AbsolutePressure / 3.9200002887589997e+06 [Pa]) * (5.2946380199380314e+01 + (AbsolutePressure / 3.9200002887589997e+06 [Pa]) * (1.5366035247149912e+03 + (AbsolutePressure / 3.9200002887589997e+06 [Pa]) * (-4.8495035293715819e+03 + (AbsolutePressure / 3.9200002887589997e+06 [Pa]) * (1.1297024962909230e+04 + (AbsolutePressure / 3.9200002887589997e+06 [Pa]) * (-1.5517352008016178e+04 + (AbsolutePressure / 3.9200002887589997e+06 [Pa]) * (1.1884648954462285e+04 + (AbsolutePressure / 3.9200002887589997e+06 [Pa]) * (-3.8044271105308721e+03))))))))),  2.0724299277822283e+01 * exp((AbsolutePressure / 3.9200002887589997e+06 [Pa] - 0.0484693841847013) / 5.0322913608489873e-02))) * 1 [kg/m^3]" . 1))
(cx-gui-do cx-set-expression-entry "Expression*Table1*ExpressionEntry3(Definition)" '("IF(AbsolutePressure >= 3.9200002887589997e+06 [Pa],  5.1115565177555629e+02 + 4.2203083509694920e+01 * (AbsolutePressure / 3.9200002887589997e+06 [Pa] - 1.0000000000000000e+00),  IF(AbsolutePressure >= 1.9000000000000000e+05 [Pa],  IF(AbsolutePressure >= 2.5075222732414827e+06 [Pa],  IF(AbsolutePressure >= 2.5798512507885122e+06 [Pa],  4.6895256826586137e+02 + (AbsolutePressure / 3.9200002887589997e+06 [Pa]) * (4.2203083509694920e+01),  -2.7937073658982170e+08 + (AbsolutePressure / 3.9200002887589997e+06 [Pa]) * (2.2177150415666552e+09 + (AbsolutePressure / 3.9200002887589997e+06 [Pa]) * (-7.0244476608076916e+09 + (AbsolutePressure / 3.9200002887589997e+06 [Pa]) * (1.1098948666485916e+10 + (AbsolutePressure / 3.9200002887589997e+06 [Pa]) * (-8.7493657214777851e+09 + (AbsolutePressure / 3.9200002887589997e+06 [Pa]) * (2.7532175867347755e+09)))))),  1.1684899005554996e+00 + (AbsolutePressure / 3.9200002887589997e+06 [Pa]) * (3.9778491650541957e+02 + (AbsolutePressure / 3.9200002887589997e+06 [Pa]) * (5.2946380199380314e+01 + (AbsolutePressure / 3.9200002887589997e+06 [Pa]) * (1.5366035247149912e+03 + (AbsolutePressure / 3.9200002887589997e+06 [Pa]) * (-4.8495035293715819e+03 + (AbsolutePressure / 3.9200002887589997e+06 [Pa]) * (1.1297024962909230e+04 + (AbsolutePressure / 3.9200002887589997e+06 [Pa]) * (-1.5517352008016178e+04 + (AbsolutePressure / 3.9200002887589997e+06 [Pa]) * (1.1884648954462285e+04 + (AbsolutePressure / 3.9200002887589997e+06 [Pa]) * (-3.8044271105308721e+03))))))))),  2.0724299277822283e+01 * exp((AbsolutePressure / 3.9200002887589997e+06 [Pa] - 0.0484693841847013) / 5.0322913608489873e-02))) * 1 [kg/m^3]" . 1))
(cx-gui-do cx-activate-item "Expression*PanelButtons*PushButton2(Cancel)")
(cx-use-window-id 51)
/exit y
(cx-gui-do cx-activate-item "Question*OK")

Posting ANSYS Product Improvement Program performance data 
Done.
Auto-Transcript Stop Time:  16:50:42, 16 Oct 2024 Romance Daylight Time 
Total Transcript Time: 1 Hour 4 Minute 44 Second.
