
              Welcome to ANSYS Fluent 2023 R1

              Copyright 1987-2023 ANSYS, Inc. All Rights Reserved.
              Unauthorized use, distribution or duplication is prohibited.
              This product is subject to U.S. laws governing export and re-export.
              For full Legal Notice, see documentation.

Build Time: Nov 28 2022 09:52:41 EST  Build Id: 10208  
 
Connected License Server List:	1055@ansysls.mbar.dtu.dk

     --------------------------------------------------------------
     This is an academic version of ANSYS FLUENT. Usage of this product
     license is limited to the terms and conditions specified in your ANSYS
     license form, additional terms section.
     --------------------------------------------------------------
Host spawning Node 0 on machine "CME-EL-ROAGR1" (win64).

------------------------------------------------------------------------------------------
ID    Hostname       Core   O.S.         PID    Vendor                                   
------------------------------------------------------------------------------------------
n9    CME-EL-ROAGR1  10/28  Windows-x64  18332  13th Gen Intel(R) Core(TM) i7-13850HX    
n8    CME-EL-ROAGR1  9/28   Windows-x64  31704  13th Gen Intel(R) Core(TM) i7-13850HX    
n7    CME-EL-ROAGR1  8/28   Windows-x64  5740   13th Gen Intel(R) Core(TM) i7-13850HX    
n6    CME-EL-ROAGR1  7/28   Windows-x64  26600  13th Gen Intel(R) Core(TM) i7-13850HX    
n5    CME-EL-ROAGR1  6/28   Windows-x64  2524   13th Gen Intel(R) Core(TM) i7-13850HX    
n4    CME-EL-ROAGR1  5/28   Windows-x64  12548  13th Gen Intel(R) Core(TM) i7-13850HX    
n3    CME-EL-ROAGR1  4/28   Windows-x64  27616  13th Gen Intel(R) Core(TM) i7-13850HX    
n2    CME-EL-ROAGR1  3/28   Windows-x64  13408  13th Gen Intel(R) Core(TM) i7-13850HX    
n1    CME-EL-ROAGR1  2/28   Windows-x64  22064  13th Gen Intel(R) Core(TM) i7-13850HX    
n0*   CME-EL-ROAGR1  1/28   Windows-x64  20492  13th Gen Intel(R) Core(TM) i7-13850HX    
host  CME-EL-ROAGR1         Windows-x64  2144   13th Gen Intel(R) Core(TM) i7-13850HX    

MPI Option Selected: intel
Selected system interconnect: default
------------------------------------------------------------------------------------------

Cleanup script file is C:\Users\roagr\OneDrive - Danmarks Tekniske Universitet\Roberto\Projects\Barotropic Model Validation\simoneau_hendricks_1979\data_simulations\case_112_nitrogen_T129_70K_P56_20bar\simulation_results_manual\cleanup-fluent-CME-EL-ROAGR1-2144.bat

> Fast-loading "C:\PROGRA~1\ANSYSI~1\v231\fluent\fluent23.1.0\addons\afd\lib\hdfio.bin"
Done.
Note: Rank = 0: Process affinity not being set (6).
Note: Rank = 1: Process affinity not being set (6).
Note: Rank = 2: Process affinity not being set (6).
Note: Rank = 3: Process affinity not being set (6).
Note: Rank = 4: Process affinity not being set (6).
Note: Rank = 5: Process affinity not being set (6).
Note: Rank = 6: Process affinity not being set (6).
Note: Rank = 7: Process affinity not being set (6).
Note: Rank = 8: Process affinity not being set (6).
Note: Rank = 9: Process affinity not being set (6).

Reading from CME-EL-ROAGR1:"C:/Users/roagr/OneDrive - Danmarks Tekniske Universitet/Roberto/Projects/Barotropic Model Validation/simoneau_hendricks_1979/data_simulations/case_112_nitrogen_T129_70K_P56_20bar/simulation_results_manual/case_112.cas.h5" in NODE0 mode ...
  Reading mesh ...
       77319 cells,     1 cell zone  ...
          77319 quadrilateral cells,  zone id: 17
      155518 faces,     5 face zones ...
         153758 2D interior faces,  zone id: 10
             99 2D pressure-inlet faces,  zone id: 11
             99 2D pressure-outlet faces,  zone id: 12
            781 2D axis faces,  zone id: 13
            781 2D wall faces,  zone id: 14
       78200 nodes,     1 node zone  ...
  Done.


Building...
     mesh
	distributing mesh
		parts..........,
		faces..........,
		nodes..........,
		cells..........,
        bandwidth reduction using Reverse Cuthill-McKee: 99/85 = 1.16471
     materials,
     interface,
     domains,
	mixture
     zones,
	wall
	axis
	outlet
	inlet
	int_solid
	fld
     parallel,
Done.

Preparing mesh for display...
Done.

Initialize using the hybrid initialization method.

Checking case topology... 
-This case has both inlets & outlets 
-Pressure information is available at the boundaries

	iter		scalar-0		scalar-1

	1		1.000000e+00	1.000000e+00
	2		2.944634e-07	1.595664e-06
	3		7.656090e-08	4.058631e-07
	4		5.819990e-08	1.293875e-07
	5		4.536166e-08	5.720262e-08
	6		3.592704e-08	3.471507e-08
	7		2.857605e-08	2.434550e-08
	8		2.284294e-08	1.809265e-08
	9		1.835127e-08	1.357094e-08
	10		1.481082e-08	1.022272e-08

Hybrid initialization is done.

Following report-files are not valid:
		report-file-0:
				Folder C:\Users\roagr\OneDrive - Danmarks Tekniske Universitet\Roberto\Projects\Barotropic Model Validation\simoneau_hendricks_1979\data_simulations\case_112_nitrogen_T129_70K_P56_20bar\data_simulations\case_112_nitrogen_T129_70K_P56_20bar\simulation_results_2023_08_22_19_51_30 does not exist.

Run can not be started until validation issues are resolved.
Deactivate invalid report clients to continue? [no] yes

  iter  continuity  x-velocity  y-velocity           k       omega     time/iter
!    1 residual normalization factors changed (continuity x-velocity y-velocity k omega)
!    1 residual normalization factors changed (continuity x-velocity y-velocity k omega)
     1  1.0000e+00  1.0000e+00  1.0000e+00  1.0000e+00  1.0000e+00  0:00:00 1999
     2  6.6794e-01  8.8619e-01  6.3922e-01  6.3012e-01  9.2805e-01  0:33:18 1998
     3  6.4881e-01  8.4503e-01  5.1000e-01  4.3047e-01  7.7400e-01  0:26:38 1997
     4  6.5208e-01  8.7442e-01  4.6605e-01  2.7173e-01  6.3155e-01  0:21:17 1996
     5  7.0025e-01  8.9742e-01  4.6920e-01  1.7415e-01  5.0141e-01  0:17:01 1995
     6  7.5786e-01  8.8187e-01  4.5394e-01  1.1834e-01  3.9122e-01  0:13:37 1994
     7  8.0190e-01  8.3941e-01  4.2426e-01  8.6895e-02  3.0398e-01  0:10:53 1993

 Reversed flow on 11 faces (5.8% area) of pressure-inlet 11.
     8  8.8022e-01  7.7190e-01  3.8422e-01  6.8700e-02  2.3749e-01  0:08:42 1992

 Reversed flow on 36 faces (38.3% area) of pressure-inlet 11.
     9  8.9756e-01  6.9675e-01  3.4373e-01  5.6590e-02  1.8776e-01  0:06:58 1991

 Reversed flow on 38 faces (40.3% area) of pressure-inlet 11.
    10  8.7383e-01  6.1847e-01  3.0907e-01  4.5949e-02  1.5025e-01  0:12:12 1990

 Reversed flow on 43 faces (46.5% area) of pressure-inlet 11.
    11  8.4412e-01  5.3922e-01  2.7579e-01  3.5014e-02  1.2142e-01  0:09:45 1989

 Reversed flow on 50 faces (55.1% area) of pressure-inlet 11.

  iter  continuity  x-velocity  y-velocity           k       omega     time/iter
    12  8.2538e-01  4.6675e-01  2.4209e-01  2.5353e-02  9.8618e-02  0:07:48 1988

 Reversed flow on 52 faces (57.8% area) of pressure-inlet 11.
    13  8.1197e-01  4.0058e-01  2.0693e-01  1.8979e-02  7.9791e-02  0:06:14 1987

 Reversed flow on 52 faces (57.8% area) of pressure-inlet 11.
    14  8.0074e-01  3.4574e-01  1.7721e-01  1.4469e-02  6.5061e-02  0:04:59 1986

 Reversed flow on 53 faces (58.1% area) of pressure-inlet 11.
    15  7.7938e-01  2.9725e-01  1.5498e-01  1.1393e-02  5.3151e-02  0:03:59 1985

 Reversed flow on 43 faces (45.4% area) of pressure-inlet 11.
    16  7.5433e-01  2.5841e-01  1.3578e-01  9.2191e-03  4.3530e-02  0:03:11 1984

 Reversed flow on 38 faces (41.3% area) of pressure-inlet 11.
    17  7.3042e-01  2.2847e-01  1.2415e-01  7.6807e-03  3.6188e-02  0:02:33 1983

 Reversed flow on 26 faces (25.9% area) of pressure-inlet 11.
    18  7.0214e-01  2.0626e-01  1.1445e-01  6.5416e-03  3.0477e-02  0:02:02 1982

 Reversed flow on 13 faces (10.2% area) of pressure-inlet 11.
    19  6.7255e-01  1.9216e-01  1.0724e-01  5.6066e-03  2.5793e-02  0:01:38 1981

 Reversed flow on 6 faces (3.4% area) of pressure-inlet 11.
    20  6.4948e-01  1.7882e-01  1.0243e-01  4.8818e-03  2.2205e-02  0:07:54 1980

 Reversed flow on 5 faces (3.0% area) of pressure-inlet 11.
    21  6.2214e-01  1.6679e-01  9.7670e-02  4.3014e-03  1.9389e-02  0:06:19 1979
    22  5.9279e-01  1.5531e-01  9.3000e-02  3.8274e-03  1.7096e-02  0:05:03 1978

  iter  continuity  x-velocity  y-velocity           k       omega     time/iter
    23  5.6122e-01  1.4406e-01  8.8131e-02  3.4358e-03  1.5201e-02  0:04:02 1977
    24  5.2989e-01  1.3301e-01  8.3629e-02  3.1050e-03  1.3619e-02  0:03:14 1976
    25  5.0184e-01  1.2227e-01  7.9960e-02  2.8413e-03  1.2349e-02  0:02:35 1975
    26  4.7667e-01  1.1182e-01  7.6832e-02  2.5838e-03  1.1207e-02  0:02:04 1974
    27  4.5571e-01  1.0139e-01  7.3815e-02  2.3603e-03  1.0161e-02  0:01:39 1973
    28  4.4292e-01  9.1367e-02  7.0260e-02  2.1743e-03  9.2711e-03  0:01:19 1972
    29  4.4618e-01  8.2032e-02  6.6588e-02  2.0248e-03  8.5340e-03  0:01:03 1971
    30  4.5882e-01  7.3529e-02  6.3054e-02  1.9009e-03  7.9292e-03  0:00:51 1970
    31  4.6854e-01  6.5970e-02  6.0219e-02  1.7926e-03  7.4274e-03  0:07:14 1969
    32  4.7487e-01  5.9205e-02  5.8008e-02  1.6972e-03  7.0165e-03  0:05:47 1968
    33  4.7750e-01  5.3282e-02  5.6069e-02  1.6078e-03  6.6585e-03  0:04:38 1967

  iter  continuity  x-velocity  y-velocity           k       omega     time/iter
    34  4.7590e-01  4.8066e-02  5.4159e-02  1.5226e-03  6.3291e-03  0:03:42 1966
    35  4.6926e-01  4.3665e-02  5.2287e-02  1.4547e-03  6.0759e-03  0:02:58 1965
    36  4.5847e-01  4.0178e-02  5.0055e-02  1.3769e-03  5.7988e-03  0:02:22 1964
    37  4.4494e-01  3.7733e-02  4.8267e-02  1.3030e-03  5.5577e-03  0:01:54 1963
    38  4.2889e-01  3.6712e-02  4.7368e-02  1.2362e-03  5.3530e-03  0:01:31 1962
    39  4.1062e-01  3.6516e-02  4.7095e-02  1.1742e-03  5.1788e-03  0:01:13 1961
    40  3.9058e-01  3.6643e-02  4.7301e-02  1.1176e-03  5.0106e-03  0:07:30 1960
    41  3.6949e-01  3.6730e-02  4.7867e-02  1.0658e-03  4.8637e-03  0:06:00 1959
    42  3.4778e-01  3.6815e-02  4.8747e-02  1.0168e-03  4.7363e-03  0:04:48 1958
    43  3.2570e-01  3.6906e-02  4.9830e-02  9.7063e-04  4.6201e-03  0:03:50 1957
    44  3.0370e-01  3.6998e-02  5.0951e-02  9.2603e-04  4.5054e-03  0:03:04 1956

  iter  continuity  x-velocity  y-velocity           k       omega     time/iter
    45  2.8212e-01  3.7150e-02  5.2096e-02  8.8423e-04  4.4033e-03  0:02:27 1955
    46  2.6149e-01  3.7453e-02  5.3278e-02  8.4489e-04  4.3154e-03  0:01:58 1954
    47  2.4259e-01  3.7962e-02  5.4488e-02  8.0671e-04  4.2337e-03  0:01:34 1953
    48  2.2545e-01  3.8659e-02  5.5578e-02  7.7144e-04  4.1623e-03  0:07:46 1952

 Reversed flow on 1 face (0.5% area) of pressure-outlet 12.
    49  2.1049e-01  3.9540e-02  5.6550e-02  7.3813e-04  4.0951e-03  0:06:12 1951

 Reversed flow on 1 face (0.5% area) of pressure-outlet 12.
    50  1.9758e-01  4.0579e-02  5.7391e-02  7.0243e-04  4.0541e-03  0:04:58 1950

 Reversed flow on 2 faces (1.1% area) of pressure-outlet 12.
    51  1.8715e-01  4.1644e-02  5.8518e-02  6.7673e-04  4.0413e-03  0:03:58 1949

 Reversed flow on 3 faces (1.7% area) of pressure-outlet 12.
    52  1.7894e-01  4.3071e-02  5.9658e-02  6.5356e-04  4.0116e-03  0:03:10 1948

 Reversed flow on 4 faces (2.3% area) of pressure-outlet 12.
    53  1.7311e-01  4.4564e-02  6.0931e-02  6.3226e-04  3.9678e-03  0:02:32 1947

 Reversed flow on 6 faces (3.6% area) of pressure-outlet 12.
    54  1.6926e-01  4.6102e-02  6.2386e-02  6.1662e-04  3.9321e-03  0:02:02 1946

 Reversed flow on 8 faces (4.9% area) of pressure-outlet 12.
    55  1.6662e-01  4.7725e-02  6.3965e-02  5.9106e-04  3.8744e-03  0:01:37 1945

 Reversed flow on 12 faces (7.7% area) of pressure-outlet 12.

  iter  continuity  x-velocity  y-velocity           k       omega     time/iter
    56  1.6574e-01  4.9061e-02  6.6816e-02  5.7381e-04  3.8301e-03  0:01:18 1944

 Reversed flow on 17 faces (11.5% area) of pressure-outlet 12.
    57  1.6547e-01  5.0599e-02  7.0466e-02  5.6050e-04  3.7621e-03  0:07:31 1943

 Reversed flow on 24 faces (17.4% area) of pressure-outlet 12.
    58  1.6567e-01  5.2251e-02  7.4737e-02  5.4989e-04  3.7104e-03  0:06:00 1942

 Reversed flow on 32 faces (24.7% area) of pressure-outlet 12.
    59  1.6598e-01  5.3861e-02  7.9126e-02  5.4069e-04  3.6620e-03  0:04:48 1941

 Reversed flow on 39 faces (31.8% area) of pressure-outlet 12.
    60  1.6622e-01  5.5463e-02  8.3752e-02  5.3275e-04  3.5967e-03  0:03:50 1940

 Reversed flow on 44 faces (37.2% area) of pressure-outlet 12.
    61  1.6595e-01  5.7046e-02  8.8621e-02  5.2489e-04  3.5256e-03  0:03:04 1939

 Reversed flow on 48 faces (41.8% area) of pressure-outlet 12.
    62  1.6534e-01  5.8494e-02  9.3299e-02  5.1750e-04  3.4646e-03  0:02:27 1938

 Reversed flow on 52 faces (46.6% area) of pressure-outlet 12.
    63  1.6399e-01  5.9727e-02  9.7550e-02  5.1259e-04  3.4031e-03  0:01:58 1937

 Reversed flow on 54 faces (49.1% area) of pressure-outlet 12.
    64  1.6247e-01  6.0693e-02  1.0138e-01  5.1165e-04  3.3554e-03  0:08:01 1936

 Reversed flow on 56 faces (51.6% area) of pressure-outlet 12.
    65  1.6031e-01  6.1335e-02  1.0455e-01  5.1135e-04  3.3037e-03  0:06:25 1935

 Reversed flow on 58 faces (54.2% area) of pressure-outlet 12.
    66  1.5774e-01  6.1800e-02  1.0673e-01  5.1391e-04  3.2565e-03  0:05:08 1934

 Reversed flow on 59 faces (55.5% area) of pressure-outlet 12.

  iter  continuity  x-velocity  y-velocity           k       omega     time/iter
    67  1.5503e-01  6.2087e-02  1.0771e-01  5.1509e-04  3.2219e-03  0:04:06 1933

 Reversed flow on 60 faces (56.8% area) of pressure-outlet 12.
    68  1.5157e-01  6.1932e-02  1.0747e-01  5.1298e-04  3.1717e-03  0:03:17 1932

 Reversed flow on 60 faces (56.8% area) of pressure-outlet 12.
    69  1.4762e-01  6.1215e-02  1.0579e-01  5.0647e-04  3.1293e-03  0:02:37 1931

 Reversed flow on 61 faces (58.1% area) of pressure-outlet 12.
    70  1.4273e-01  5.9784e-02  1.0364e-01  4.9637e-04  3.0824e-03  0:02:06 1930

 Reversed flow on 61 faces (58.1% area) of pressure-outlet 12.
    71  1.3656e-01  5.7699e-02  1.0114e-01  4.8589e-04  3.0434e-03  0:01:41 1929

 Reversed flow on 61 faces (58.1% area) of pressure-outlet 12.
    72  1.2927e-01  5.4912e-02  9.7216e-02  4.7512e-04  3.0146e-03  0:01:20 1928

 Reversed flow on 61 faces (58.1% area) of pressure-outlet 12.
    73  1.2264e-01  5.1578e-02  9.1631e-02  4.6223e-04  2.9926e-03  0:07:30 1927

 Reversed flow on 61 faces (58.1% area) of pressure-outlet 12.
    74  1.1705e-01  4.7716e-02  8.4526e-02  4.4358e-04  2.9896e-03  0:06:00 1926

 Reversed flow on 61 faces (58.1% area) of pressure-outlet 12.
    75  1.1084e-01  4.3377e-02  7.6551e-02  4.1658e-04  2.9954e-03  0:04:48 1925

 Reversed flow on 60 faces (56.8% area) of pressure-outlet 12.
    76  1.0335e-01  3.8722e-02  6.6580e-02  3.8515e-04  2.9097e-03  0:03:50 1924

 Reversed flow on 60 faces (56.8% area) of pressure-outlet 12.
    77  9.3751e-02  3.4574e-02  5.5884e-02  3.5481e-04  2.7481e-03  0:03:04 1923

 Reversed flow on 60 faces (56.8% area) of pressure-outlet 12.

  iter  continuity  x-velocity  y-velocity           k       omega     time/iter
    78  8.2774e-02  3.0999e-02  4.9146e-02  3.3881e-04  2.8741e-03  0:02:27 1922

 Reversed flow on 59 faces (55.5% area) of pressure-outlet 12.
    79  7.1725e-02  2.9275e-02  4.9657e-02  3.4687e-04  3.6138e-03  0:01:58 1921

 Reversed flow on 59 faces (55.5% area) of pressure-outlet 12.
    80  6.5223e-02  2.9811e-02  6.1911e-02  3.4186e-04  4.5794e-03  0:01:34 1920

 Reversed flow on 59 faces (55.5% area) of pressure-outlet 12.
    81  6.9681e-02  3.0580e-02  7.6820e-02  3.1655e-04  5.2489e-03  0:07:39 1919

 Reversed flow on 59 faces (55.5% area) of pressure-outlet 12.
    82  7.9611e-02  3.1341e-02  9.0342e-02  2.9508e-04  5.6822e-03  0:06:07 1918

 Reversed flow on 59 faces (55.5% area) of pressure-outlet 12.
    83  9.1104e-02  3.2272e-02  1.0224e-01  2.8865e-04  6.1488e-03  0:04:53 1917

 Reversed flow on 59 faces (55.5% area) of pressure-outlet 12.
    84  1.0180e-01  3.3099e-02  1.1016e-01  2.8866e-04  6.5125e-03  0:03:55 1916

 Reversed flow on 60 faces (56.8% area) of pressure-outlet 12.
    85  1.1102e-01  3.3877e-02  1.1355e-01  2.9129e-04  6.8136e-03  0:03:08 1915

 Reversed flow on 61 faces (58.1% area) of pressure-outlet 12.
    86  1.1886e-01  3.4729e-02  1.1379e-01  3.0380e-04  7.1124e-03  0:02:30 1914

 Reversed flow on 63 faces (60.8% area) of pressure-outlet 12.
    87  1.2411e-01  3.5698e-02  1.1270e-01  3.2043e-04  7.2687e-03  0:02:00 1913

 Reversed flow on 64 faces (62.2% area) of pressure-outlet 12.
    88  1.2755e-01  3.6518e-02  1.1168e-01  3.3857e-04  7.5394e-03  0:01:36 1912

 Reversed flow on 66 faces (65.0% area) of pressure-outlet 12.

  iter  continuity  x-velocity  y-velocity           k       omega     time/iter
    89  1.2962e-01  3.7169e-02  1.1028e-01  3.5876e-04  7.6126e-03  0:07:39 1911

 Reversed flow on 68 faces (67.7% area) of pressure-outlet 12.
    90  1.3040e-01  3.7645e-02  1.0819e-01  3.7833e-04  7.9266e-03  0:06:07 1910

 Reversed flow on 70 faces (70.6% area) of pressure-outlet 12.
    91  1.3031e-01  3.7801e-02  1.0527e-01  3.9473e-04  8.0887e-03  0:04:53 1909

 Reversed flow on 72 faces (73.4% area) of pressure-outlet 12.
    92  1.3003e-01  3.7844e-02  1.0250e-01  4.0840e-04  8.3229e-03  0:03:55 1908

 Reversed flow on 74 faces (76.3% area) of pressure-outlet 12.
    93  1.2973e-01  3.7792e-02  9.9715e-02  4.1949e-04  8.5434e-03  0:03:08 1907

 Reversed flow on 76 faces (79.1% area) of pressure-outlet 12.
    94  1.2933e-01  3.7674e-02  9.6864e-02  4.2884e-04  8.7324e-03  0:02:30 1906

 Reversed flow on 79 faces (83.3% area) of pressure-outlet 12.
    95  1.3015e-01  3.7510e-02  9.4456e-02  4.3652e-04  9.0638e-03  0:02:00 1905

 Reversed flow on 81 faces (86.0% area) of pressure-outlet 12.
    96  1.3173e-01  3.7249e-02  9.2429e-02  4.4350e-04  9.2569e-03  0:01:36 1904

 Reversed flow on 83 faces (88.6% area) of pressure-outlet 12.
    97  1.3427e-01  3.6872e-02  9.0177e-02  4.4808e-04  9.4868e-03  0:01:17 1903

 Reversed flow on 86 faces (92.1% area) of pressure-outlet 12.
    98  1.3766e-01  3.6442e-02  8.7956e-02  4.5153e-04  9.6999e-03  0:07:22 1902

 Reversed flow on 89 faces (95.2% area) of pressure-outlet 12.
    99  1.4099e-01  3.6127e-02  8.6461e-02  4.5561e-04  9.9336e-03  0:05:53 1901

 Reversed flow on 93 faces (98.2% area) of pressure-outlet 12.

  iter  continuity  x-velocity  y-velocity           k       omega     time/iter
   100  1.4491e-01  3.5539e-02  8.4312e-02  4.5730e-04  1.0190e-02  0:04:42 1900

 Reversed flow on 99 faces (100.0% area) of pressure-outlet 12.
   101  1.4807e-01  3.4967e-02  8.2157e-02  4.5809e-04  1.0298e-02  0:03:46 1899

 Reversed flow on 99 faces (100.0% area) of pressure-outlet 12.
   102  1.5146e-01  3.4415e-02  8.0719e-02  4.5782e-04  1.0458e-02  0:03:01 1898

 Reversed flow on 99 faces (100.0% area) of pressure-outlet 12.
   103  1.5505e-01  3.3897e-02  7.9206e-02  4.5694e-04  1.0717e-02  0:02:24 1897

 Reversed flow on 99 faces (100.0% area) of pressure-outlet 12.
   104  1.5798e-01  3.3458e-02  7.7760e-02  4.5675e-04  1.0801e-02  0:01:55 1896

 Reversed flow on 99 faces (100.0% area) of pressure-outlet 12.
   105  1.6083e-01  3.3026e-02  7.6622e-02  4.5557e-04  1.1034e-02  0:01:32 1895

 Reversed flow on 99 faces (100.0% area) of pressure-outlet 12.
   106  1.6334e-01  3.2597e-02  7.5676e-02  4.5439e-04  1.1121e-02  0:01:14 1894

 Reversed flow on 99 faces (100.0% area) of pressure-outlet 12.
   107  1.6579e-01  3.2515e-02  7.5593e-02  4.5347e-04  1.1159e-02  0:07:18 1893

 Reversed flow on 99 faces (100.0% area) of pressure-outlet 12.
   108  1.6811e-01  3.2210e-02  7.4501e-02  4.5172e-04  1.1268e-02  0:05:50 1892

 Reversed flow on 99 faces (100.0% area) of pressure-outlet 12.
   109  1.6983e-01  3.1903e-02  7.3811e-02  4.5032e-04  1.1217e-02  0:04:40 1891

 Reversed flow on 99 faces (100.0% area) of pressure-outlet 12.
   110  1.7149e-01  3.1769e-02  7.4059e-02  4.4881e-04  1.1401e-02  0:03:44 1890

 Reversed flow on 99 faces (100.0% area) of pressure-outlet 12.

  iter  continuity  x-velocity  y-velocity           k       omega     time/iter
   111  1.7260e-01  3.2039e-02  7.4688e-02  4.4694e-04  1.1451e-02  0:02:59 1889

 Reversed flow on 99 faces (100.0% area) of pressure-outlet 12.
   112  1.7299e-01  3.2372e-02  7.4585e-02  4.4485e-04  1.1342e-02  0:02:23 1888

 Reversed flow on 99 faces (100.0% area) of pressure-outlet 12.
   113  1.7348e-01  3.2708e-02  7.4570e-02  4.4235e-04  1.1451e-02  0:01:54 1887

 Reversed flow on 99 faces (100.0% area) of pressure-outlet 12.
   114  1.7334e-01  3.3220e-02  7.5433e-02  4.4016e-04  1.1662e-02  0:01:31 1886

 Reversed flow on 99 faces (100.0% area) of pressure-outlet 12.
   115  1.7311e-01  3.3903e-02  7.6394e-02  4.3783e-04  1.1735e-02  0:01:13 1885

 Reversed flow on 99 faces (100.0% area) of pressure-outlet 12.
   116  1.7228e-01  3.4893e-02  7.7363e-02  4.3698e-04  1.1918e-02  0:07:15 1884

 Reversed flow on 99 faces (100.0% area) of pressure-outlet 12.
   117  1.7085e-01  3.5497e-02  7.5425e-02  4.3184e-04  1.2199e-02  0:05:48 1883

 Reversed flow on 99 faces (100.0% area) of pressure-outlet 12.
   118  1.6889e-01  3.7686e-02  7.9269e-02  4.2786e-04  1.2642e-02  0:04:38 1882

 Reversed flow on 99 faces (100.0% area) of pressure-outlet 12.
   119  1.6674e-01  3.8741e-02  8.0622e-02  4.2586e-04  1.2945e-02  0:03:42 1881

 Reversed flow on 99 faces (100.0% area) of pressure-outlet 12.
   120  1.6455e-01  3.9137e-02  7.9059e-02  4.2221e-04  1.2745e-02  0:02:58 1880

 Reversed flow on 98 faces (99.5% area) of pressure-outlet 12.
   121  1.6179e-01  4.0719e-02  8.1487e-02  4.1798e-04  1.2946e-02  0:02:22 1879

 Reversed flow on 98 faces (99.5% area) of pressure-outlet 12.

  iter  continuity  x-velocity  y-velocity           k       omega     time/iter
   122  1.5833e-01  4.2395e-02  8.2965e-02  4.1321e-04  1.3400e-02  0:01:54 1878

 Reversed flow on 98 faces (99.5% area) of pressure-outlet 12.
   123  1.5474e-01  4.4031e-02  8.3658e-02  4.0867e-04  1.3643e-02  0:01:31 1877

 Reversed flow on 98 faces (99.5% area) of pressure-outlet 12.
   124  1.5073e-01  4.5601e-02  8.5412e-02  4.0267e-04  1.3659e-02  0:01:13 1876

 Reversed flow on 97 faces (98.9% area) of pressure-outlet 12.
   125  1.4677e-01  4.6944e-02  8.8455e-02  3.9585e-04  1.3794e-02  0:07:13 1875

 Reversed flow on 97 faces (98.9% area) of pressure-outlet 12.
   126  1.4315e-01  4.8152e-02  9.0992e-02  3.9030e-04  1.3838e-02  0:05:46 1874

 Reversed flow on 97 faces (98.9% area) of pressure-outlet 12.
   127  1.3935e-01  4.9690e-02  9.3597e-02  3.8478e-04  1.3856e-02  0:04:37 1873

 Reversed flow on 89 faces (95.9% area) of pressure-outlet 12.
   128  1.3546e-01  5.0878e-02  9.5402e-02  3.7937e-04  1.3972e-02  0:03:41 1872

 Reversed flow on 83 faces (90.4% area) of pressure-outlet 12.
   129  1.3107e-01  5.2143e-02  9.7355e-02  3.7466e-04  1.3938e-02  0:02:57 1871

 Reversed flow on 79 faces (86.3% area) of pressure-outlet 12.
   130  1.2647e-01  5.3250e-02  9.8662e-02  3.7020e-04  1.3912e-02  0:02:22 1870

 Reversed flow on 75 faces (81.0% area) of pressure-outlet 12.
   131  1.2211e-01  5.4494e-02  1.0009e-01  3.6455e-04  1.4003e-02  0:01:53 1869

 Reversed flow on 71 faces (76.2% area) of pressure-outlet 12.
   132  1.1780e-01  5.6274e-02  1.0273e-01  3.6069e-04  1.4110e-02  0:01:30 1868

 Reversed flow on 69 faces (73.3% area) of pressure-outlet 12.

  iter  continuity  x-velocity  y-velocity           k       omega     time/iter
   133  1.1415e-01  5.6259e-02  1.0171e-01  3.5640e-04  1.3957e-02  0:07:26 1867

 Reversed flow on 65 faces (68.4% area) of pressure-outlet 12.
   134  1.1055e-01  5.7501e-02  1.0524e-01  3.5462e-04  1.3842e-02  0:05:56 1866

 Reversed flow on 61 faces (63.5% area) of pressure-outlet 12.
   135  1.0811e-01  5.7945e-02  1.0521e-01  3.5362e-04  1.3599e-02  0:04:45 1865

 Reversed flow on 59 faces (60.7% area) of pressure-outlet 12.
   136  1.0635e-01  5.8733e-02  1.0406e-01  3.5362e-04  1.3797e-02  0:03:48 1864

 Reversed flow on 55 faces (55.9% area) of pressure-outlet 12.
   137  1.0696e-01  5.9706e-02  1.0446e-01  3.5198e-04  1.3718e-02  0:03:02 1863

 Reversed flow on 52 faces (52.5% area) of pressure-outlet 12.
   138  1.0828e-01  6.0511e-02  1.0524e-01  3.4990e-04  1.3647e-02  0:02:26 1862

 Reversed flow on 48 faces (47.9% area) of pressure-outlet 12.
   139  1.0942e-01  6.1277e-02  1.0657e-01  3.4720e-04  1.3719e-02  0:01:56 1861

 Reversed flow on 44 faces (43.3% area) of pressure-outlet 12.
   140  1.1039e-01  6.1851e-02  1.0765e-01  3.4317e-04  1.3540e-02  0:07:45 1860

 Reversed flow on 41 faces (39.6% area) of pressure-outlet 12.
   141  1.1085e-01  6.2243e-02  1.0850e-01  3.3990e-04  1.3409e-02  0:06:12 1859

 Reversed flow on 36 faces (34.0% area) of pressure-outlet 12.
   142  1.1099e-01  6.2555e-02  1.0870e-01  3.3685e-04  1.3474e-02  0:04:57 1858

 Reversed flow on 22 faces (19.4% area) of pressure-outlet 12.
   143  1.1187e-01  6.2645e-02  1.0910e-01  3.3247e-04  1.3325e-02  0:03:58 1857

 Reversed flow on 18 faces (15.7% area) of pressure-outlet 12.

  iter  continuity  x-velocity  y-velocity           k       omega     time/iter
   144  1.1175e-01  6.2715e-02  1.0918e-01  3.2899e-04  1.3134e-02  0:03:10 1856

 Reversed flow on 14 faces (12.1% area) of pressure-outlet 12.
   145  1.1140e-01  6.2519e-02  1.0912e-01  3.2573e-04  1.3221e-02  0:02:32 1855

 Reversed flow on 7 faces (6.0% area) of pressure-outlet 12.
   146  1.1119e-01  6.2315e-02  1.0910e-01  3.2029e-04  1.3016e-02  0:02:02 1854
   147  1.1019e-01  6.1794e-02  1.0810e-01  3.1649e-04  1.2844e-02  0:01:37 1853
   148  1.0917e-01  6.1365e-02  1.0773e-01  3.1247e-04  1.2875e-02  0:07:28 1852
   149  1.0772e-01  6.0736e-02  1.0697e-01  3.0722e-04  1.2662e-02  0:05:58 1851
   150  1.0644e-01  5.9951e-02  1.0594e-01  3.0299e-04  1.2542e-02  0:04:46 1850
   151  1.0504e-01  5.8899e-02  1.0443e-01  2.9788e-04  1.2468e-02  0:03:49 1849
   152  1.0319e-01  5.8009e-02  1.0301e-01  2.9328e-04  1.2259e-02  0:03:03 1848
   153  1.0171e-01  5.6935e-02  1.0160e-01  2.8944e-04  1.2120e-02  0:02:26 1847
   154  1.0012e-01  5.5716e-02  9.9770e-02  2.8413e-04  1.2129e-02  0:01:57 1846

  iter  continuity  x-velocity  y-velocity           k       omega     time/iter
   155  9.8615e-02  5.4723e-02  9.8379e-02  2.7948e-04  1.1727e-02  0:01:34 1845
   156  9.6772e-02  5.3458e-02  9.6668e-02  2.7607e-04  1.1792e-02  0:01:15 1844
   157  9.5213e-02  5.2090e-02  9.4868e-02  2.7362e-04  1.1540e-02  0:07:08 1843
   158  9.3312e-02  5.0901e-02  9.2787e-02  2.7454e-04  1.1371e-02  0:05:43 1842
   159  9.2017e-02  4.9593e-02  9.1039e-02  2.7655e-04  1.1366e-02  0:04:34 1841
   160  8.9749e-02  4.8519e-02  8.9323e-02  2.7979e-04  1.1105e-02  0:03:39 1840
   161  8.8179e-02  4.7361e-02  8.8285e-02  2.8382e-04  1.0960e-02  0:02:55 1839
   162  8.6879e-02  4.5864e-02  8.6387e-02  2.8701e-04  1.0878e-02  0:02:20 1838
   163  8.5254e-02  4.4829e-02  8.4791e-02  2.9153e-04  1.0540e-02  0:07:59 1837
   164  8.3884e-02  4.3578e-02  8.3127e-02  2.9675e-04  1.0565e-02  0:06:23 1836
   165  8.1738e-02  4.2533e-02  8.1760e-02  3.0197e-04  1.0273e-02  0:05:06 1835

  iter  continuity  x-velocity  y-velocity           k       omega     time/iter
   166  8.0289e-02  4.1509e-02  8.0566e-02  3.0715e-04  1.0140e-02  0:04:05 1834
   167  7.9330e-02  4.0344e-02  7.8791e-02  3.1094e-04  9.9641e-03  0:03:16 1833
   168  7.7366e-02  3.9332e-02  7.7570e-02  3.1612e-04  9.7381e-03  0:02:37 1832
   169  7.6712e-02  3.8323e-02  7.6179e-02  3.1957e-04  9.7364e-03  0:02:05 1831
   170  7.4879e-02  3.7339e-02  7.5018e-02  3.2333e-04  9.4345e-03  0:01:40 1830
   171  7.3489e-02  3.6463e-02  7.3688e-02  3.2680e-04  9.3331e-03  0:07:26 1829
   172  7.2470e-02  3.5669e-02  7.2462e-02  3.2875e-04  9.1549e-03  0:05:57 1828
   173  7.0880e-02  3.4927e-02  7.1596e-02  3.3122e-04  8.9957e-03  0:04:45 1827
   174  7.0466e-02  3.4080e-02  7.0226e-02  3.3113e-04  8.8137e-03  0:03:48 1826
   175  6.8618e-02  3.3299e-02  6.9008e-02  3.3261e-04  8.5723e-03  0:03:02 1825
   176  6.7899e-02  3.2556e-02  6.7675e-02  3.3169e-04  8.5377e-03  0:02:26 1824

  iter  continuity  x-velocity  y-velocity           k       omega     time/iter
   177  6.6499e-02  3.1996e-02  6.6972e-02  3.3173e-04  8.2556e-03  0:01:56 1823
   178  6.5298e-02  3.1213e-02  6.5917e-02  3.3025e-04  8.2115e-03  0:01:33 1822
   179  6.4476e-02  3.0684e-02  6.5114e-02  3.2904e-04  8.0222e-03  0:07:19 1821
   180  6.3079e-02  3.0002e-02  6.4020e-02  3.2679e-04  7.9079e-03  0:05:51 1820
   181  6.2606e-02  2.9574e-02  6.3049e-02  3.2422e-04  7.7825e-03  0:04:40 1819
   182  6.0947e-02  2.8972e-02  6.2281e-02  3.2159e-04  7.5778e-03  0:03:44 1818
   183  6.0840e-02  2.8485e-02  6.1012e-02  3.1815e-04  7.4703e-03  0:02:59 1817
   184  5.8989e-02  2.7951e-02  6.0401e-02  3.1496e-04  7.2801e-03  0:02:23 1816
   185  5.8929e-02  2.7471e-02  5.9341e-02  3.1079e-04  7.1767e-03  0:01:55 1815
   186  5.7033e-02  2.6925e-02  5.8421e-02  3.0693e-04  6.9673e-03  0:01:32 1814
   187  5.7003e-02  2.6453e-02  5.7445e-02  3.0215e-04  6.8892e-03  0:07:16 1813

  iter  continuity  x-velocity  y-velocity           k       omega     time/iter
   188  5.5129e-02  2.5926e-02  5.6486e-02  2.9805e-04  6.6622e-03  0:05:49 1812
   189  5.5113e-02  2.5506e-02  5.5673e-02  2.9311e-04  6.6206e-03  0:04:39 1811
   190  5.3230e-02  2.4956e-02  5.4652e-02  2.8863e-04  6.3682e-03  0:03:43 1810
   191  5.3260e-02  2.4559e-02  5.3785e-02  2.8332e-04  6.3691e-03  0:02:58 1809
   192  5.1432e-02  2.3967e-02  5.2695e-02  2.7826e-04  6.0702e-03  0:02:22 1808
   193  5.1289e-02  2.3662e-02  5.1837e-02  2.7342e-04  6.1337e-03  0:01:54 1807
   194  4.9765e-02  2.3100e-02  5.0713e-02  2.6766e-04  5.8071e-03  0:01:31 1806
   195  4.9423e-02  2.2805e-02  5.0015e-02  2.6302e-04  5.8955e-03  0:01:13 1805
   196  4.8344e-02  2.2238e-02  4.8847e-02  2.5670e-04  5.5722e-03  0:06:59 1804
   197  4.7594e-02  2.1899e-02  4.8188e-02  2.5221e-04  5.6449e-03  0:05:35 1803
   198  4.7026e-02  2.1402e-02  4.7115e-02  2.4585e-04  5.4228e-03  0:04:28 1802

  iter  continuity  x-velocity  y-velocity           k       omega     time/iter
   199  4.5525e-02  2.1049e-02  4.6353e-02  2.4149e-04  5.3851e-03  0:03:34 1801
   200  4.5778e-02  2.0618e-02  4.5343e-02  2.3560e-04  5.3187e-03  0:02:51 1800
   201  4.4006e-02  2.0196e-02  4.4876e-02  2.3075e-04  5.0809e-03  0:02:17 1799
   202  4.3838e-02  1.9836e-02  4.3718e-02  2.2545e-04  5.2003e-03  0:01:49 1798
   203  4.2501e-02  1.9397e-02  4.3183e-02  2.2010e-04  4.8062e-03  0:01:28 1797
   204  4.1900e-02  1.9011e-02  4.2266e-02  2.1527e-04  5.0280e-03  0:07:09 1796
   205  4.1086e-02  1.8639e-02  4.1496e-02  2.0946e-04  4.6167e-03  0:05:43 1795
   206  3.9784e-02  1.8211e-02  4.1104e-02  2.0538e-04  4.7670e-03  0:04:34 1794
   207  3.9942e-02  1.7913e-02  3.9977e-02  2.0052e-04  4.5558e-03  0:03:39 1793
   208  3.8400e-02  1.7446e-02  3.9869e-02  1.9601e-04  4.4146e-03  0:02:55 1792
   209  3.8730e-02  1.7166e-02  3.8667e-02  1.9185e-04  4.4211e-03  0:02:20 1791

  iter  continuity  x-velocity  y-velocity           k       omega     time/iter
   210  3.7315e-02  1.6734e-02  3.8382e-02  1.8610e-04  4.1491e-03  0:01:52 1790
   211  3.6261e-02  1.6274e-02  3.7471e-02  1.8261e-04  4.2162e-03  0:01:30 1789
   212  3.6587e-02  1.6026e-02  3.6658e-02  1.7854e-04  4.1019e-03  0:01:12 1788
   213  3.4715e-02  1.5518e-02  3.6558e-02  1.7366e-04  3.9609e-03  0:06:55 1787
   214  3.4941e-02  1.5272e-02  3.5329e-02  1.7113e-04  3.9124e-03  0:05:32 1786
   215  3.3784e-02  1.4908e-02  3.5044e-02  1.6576e-04  3.8433e-03  0:04:25 1785
   216  3.3480e-02  1.4554e-02  3.4434e-02  1.6208e-04  3.6881e-03  0:03:32 1784
   217  3.3688e-02  1.4302e-02  3.3777e-02  1.5867e-04  3.6958e-03  0:02:49 1783
   218  3.1120e-02  1.3853e-02  3.3106e-02  1.5379e-04  3.5301e-03  0:02:16 1782
   219  3.2081e-02  1.3669e-02  3.2727e-02  1.5260e-04  3.4165e-03  0:01:48 1781
   220  3.0614e-02  1.3288e-02  3.2335e-02  1.4789e-04  3.5687e-03  0:01:27 1780

  iter  continuity  x-velocity  y-velocity           k       omega     time/iter
   221  2.9928e-02  1.3081e-02  3.1038e-02  1.4498e-04  3.2331e-03  0:01:09 1779
   222  3.0568e-02  1.2880e-02  3.1437e-02  1.4241e-04  3.2883e-03  0:06:51 1778
   223  2.8639e-02  1.2531e-02  3.0455e-02  1.3924e-04  3.3466e-03  0:05:29 1777
   224  2.8231e-02  1.2336e-02  2.9595e-02  1.3666e-04  2.9360e-03  0:04:23 1776
   225  2.7694e-02  1.2048e-02  2.9428e-02  1.3329e-04  3.1257e-03  0:03:30 1775
   226  2.7882e-02  1.1956e-02  2.8945e-02  1.3293e-04  3.1084e-03  0:02:48 1774
   227  2.6126e-02  1.1585e-02  2.8591e-02  1.2912e-04  2.8300e-03  0:02:14 1773
   228  2.6585e-02  1.1461e-02  2.7419e-02  1.2660e-04  2.9348e-03  0:01:47 1772
   229  2.6011e-02  1.1289e-02  2.7291e-02  1.2577e-04  2.8197e-03  0:01:26 1771
   230  2.4323e-02  1.0980e-02  2.7088e-02  1.2339e-04  2.7244e-03  0:01:09 1770
   231  2.5078e-02  1.0821e-02  2.6260e-02  1.2003e-04  2.6838e-03  0:06:49 1769

  iter  continuity  x-velocity  y-velocity           k       omega     time/iter
   232  2.3959e-02  1.0588e-02  2.5552e-02  1.1876e-04  2.5676e-03  0:05:27 1768
   233  2.3421e-02  1.0425e-02  2.5010e-02  1.1776e-04  2.6279e-03  0:04:21 1767
   234  2.2603e-02  1.0132e-02  2.4822e-02  1.1291e-04  2.4369e-03  0:03:29 1766
   235  2.2762e-02  1.0002e-02  2.4290e-02  1.1237e-04  2.3362e-03  0:02:47 1765
   236  2.1848e-02  9.8303e-03  2.3847e-02  1.1063e-04  2.4631e-03  0:02:14 1764
   237  2.0438e-02  9.5765e-03  2.3011e-02  1.0743e-04  2.3086e-03  0:01:47 1763
   238  2.0614e-02  9.3506e-03  2.2522e-02  1.0560e-04  2.0868e-03  0:01:25 1762
   239  2.0250e-02  9.2204e-03  2.1948e-02  1.0346e-04  2.2205e-03  0:07:00 1761
   240  1.9358e-02  9.0228e-03  2.1405e-02  1.0253e-04  2.2013e-03  0:05:36 1760
   241  1.8091e-02  8.8235e-03  2.1128e-02  1.0082e-04  1.9512e-03  0:04:29 1759
   242  1.8393e-02  8.6432e-03  2.0756e-02  9.8609e-05  1.9820e-03  0:03:35 1758

  iter  continuity  x-velocity  y-velocity           k       omega     time/iter
   243  1.7891e-02  8.4833e-03  2.0145e-02  9.7392e-05  2.0118e-03  0:02:52 1757
   244  1.7027e-02  8.3194e-03  1.9589e-02  9.7059e-05  1.8874e-03  0:02:17 1756
   245  1.6028e-02  8.1157e-03  1.9394e-02  9.5221e-05  1.8650e-03  0:01:50 1755
   246  1.5778e-02  7.9224e-03  1.8973e-02  9.3544e-05  1.8251e-03  0:01:28 1754
   247  1.5415e-02  7.8148e-03  1.8572e-02  9.2753e-05  1.7331e-03  0:01:10 1753
   248  1.5007e-02  7.6852e-03  1.8253e-02  9.0520e-05  1.6619e-03  0:06:47 1752
   249  1.4388e-02  7.5157e-03  1.7915e-02  9.0631e-05  1.7859e-03  0:05:25 1751
   250  1.3571e-02  7.3429e-03  1.7487e-02  8.9818e-05  1.7055e-03  0:04:20 1750
   251  1.3415e-02  7.1680e-03  1.7198e-02  8.8759e-05  1.4921e-03  0:03:28 1749
   252  1.3280e-02  7.0474e-03  1.6947e-02  8.7781e-05  1.5258e-03  0:02:46 1748
   253  1.2857e-02  6.9209e-03  1.6668e-02  8.6571e-05  1.5707e-03  0:02:13 1747

  iter  continuity  x-velocity  y-velocity           k       omega     time/iter
   254  1.2298e-02  6.7641e-03  1.6414e-02  8.4721e-05  1.4944e-03  0:01:46 1746
   255  1.1923e-02  6.5892e-03  1.6183e-02  8.4381e-05  1.3556e-03  0:01:25 1745
   256  1.1748e-02  6.4298e-03  1.5808e-02  8.4607e-05  1.3978e-03  0:01:08 1744
   257  1.1511e-02  6.2824e-03  1.5460e-02  8.4589e-05  1.3815e-03  0:06:43 1743
   258  1.1325e-02  6.1636e-03  1.5283e-02  8.3552e-05  1.2851e-03  0:05:22 1742
   259  1.1283e-02  6.0298e-03  1.5094e-02  8.2459e-05  1.1593e-03  0:04:18 1741
   260  1.1242e-02  5.8889e-03  1.4800e-02  8.1860e-05  1.2103e-03  0:03:26 1740
   261  1.1019e-02  5.7770e-03  1.4464e-02  8.1808e-05  1.2419e-03  0:02:45 1739
   262  1.0839e-02  5.6531e-03  1.4168e-02  8.0097e-05  1.1843e-03  0:02:12 1738
   263  1.0806e-02  5.5424e-03  1.4030e-02  7.8987e-05  1.0732e-03  0:01:45 1737
   264  1.0891e-02  5.4287e-03  1.3867e-02  7.8293e-05  1.0258e-03  0:01:24 1736

  iter  continuity  x-velocity  y-velocity           k       omega     time/iter
   265  1.1002e-02  5.3642e-03  1.3716e-02  7.8458e-05  1.0716e-03  0:06:54 1735
   266  1.0973e-02  5.2794e-03  1.3552e-02  7.7768e-05  1.0613e-03  0:05:31 1734
   267  1.1044e-02  5.1827e-03  1.3420e-02  7.7014e-05  9.9908e-04  0:04:25 1733
   268  1.1152e-02  5.0449e-03  1.3201e-02  7.5278e-05  9.1179e-04  0:03:32 1732
   269  1.1225e-02  4.8986e-03  1.2904e-02  7.3932e-05  8.6921e-04  0:02:49 1731
   270  1.1179e-02  4.7835e-03  1.2552e-02  7.3071e-05  8.9726e-04  0:02:15 1730
   271  1.0947e-02  4.6357e-03  1.2098e-02  7.2005e-05  8.9243e-04  0:01:48 1729
   272  1.0557e-02  4.4495e-03  1.1545e-02  7.0450e-05  8.4190e-04  0:01:27 1728
   273  1.0193e-02  4.2511e-03  1.0930e-02  6.8883e-05  7.7707e-04  0:01:09 1727
   274  9.9075e-03  4.0554e-03  1.0288e-02  6.7036e-05  6.9574e-04  0:06:41 1726
   275  9.5777e-03  3.8959e-03  9.6952e-03  6.5376e-05  6.8474e-04  0:05:20 1725

  iter  continuity  x-velocity  y-velocity           k       omega     time/iter
   276  9.2624e-03  3.7782e-03  9.1695e-03  6.3857e-05  6.8824e-04  0:04:16 1724
   277  8.8855e-03  3.6649e-03  8.7593e-03  6.2411e-05  6.7469e-04  0:03:25 1723
   278  8.5093e-03  3.5248e-03  8.4337e-03  6.0928e-05  6.5145e-04  0:02:44 1722
   279  8.2468e-03  3.3887e-03  8.1310e-03  5.9340e-05  6.0610e-04  0:02:11 1721
   280  8.0172e-03  3.2473e-03  7.8012e-03  5.7659e-05  5.6808e-04  0:01:45 1720
   281  7.8731e-03  3.1135e-03  7.5175e-03  5.6093e-05  5.1576e-04  0:01:24 1719
   282  7.7190e-03  3.0188e-03  7.2284e-03  5.4734e-05  5.0801e-04  0:01:07 1718
   283  7.5597e-03  2.9434e-03  6.9832e-03  5.3436e-05  5.1364e-04  0:06:37 1717
   284  7.3936e-03  2.8639e-03  6.7537e-03  5.2231e-05  4.9321e-04  0:05:17 1716
   285  7.2475e-03  2.7753e-03  6.5580e-03  5.1011e-05  4.6585e-04  0:04:14 1715
   286  7.0499e-03  2.6507e-03  6.3069e-03  4.9687e-05  4.4495e-04  0:03:23 1714

  iter  continuity  x-velocity  y-velocity           k       omega     time/iter
   287  6.8914e-03  2.5188e-03  6.0366e-03  4.8276e-05  4.2448e-04  0:02:42 1713
   288  6.7291e-03  2.3870e-03  5.7560e-03  4.6831e-05  4.0225e-04  0:02:10 1712
   289  6.5824e-03  2.2707e-03  5.4526e-03  4.5381e-05  3.7304e-04  0:01:44 1711
   290  6.4140e-03  2.1765e-03  5.1699e-03  4.4059e-05  3.5304e-04  0:01:23 1710
   291  6.2272e-03  2.1103e-03  4.9475e-03  4.2867e-05  3.2454e-04  0:01:06 1709
   292  6.0705e-03  2.0683e-03  4.7833e-03  4.1792e-05  3.1933e-04  0:06:35 1708
   293  5.9226e-03  2.0362e-03  4.6705e-03  4.0934e-05  3.2661e-04  0:05:15 1707
   294  5.7885e-03  2.0013e-03  4.5805e-03  4.0065e-05  3.2727e-04  0:04:12 1706
   295  5.6550e-03  1.9614e-03  4.4848e-03  3.9182e-05  2.9773e-04  0:03:22 1705
   296  5.5262e-03  1.9141e-03  4.3617e-03  3.8280e-05  2.7422e-04  0:02:41 1704
   297  5.3663e-03  1.8499e-03  4.2047e-03  3.7279e-05  2.4514e-04  0:02:09 1703

  iter  continuity  x-velocity  y-velocity           k       omega     time/iter
   298  5.1775e-03  1.7732e-03  4.0201e-03  3.6163e-05  2.1536e-04  0:01:43 1702
   299  4.9530e-03  1.6883e-03  3.8003e-03  3.4914e-05  1.9302e-04  0:01:22 1701
   300  4.6870e-03  1.5980e-03  3.5525e-03  3.3534e-05  1.7777e-04  0:01:06 1700
   301  4.3954e-03  1.5148e-03  3.3071e-03  3.2075e-05  1.6521e-04  0:06:32 1699
   302  4.1010e-03  1.4462e-03  3.0818e-03  3.0595e-05  1.5457e-04  0:05:14 1698
   303  3.8085e-03  1.3937e-03  2.8862e-03  2.9174e-05  1.4612e-04  0:04:11 1697
   304  3.5316e-03  1.3633e-03  2.7354e-03  2.7892e-05  1.4100e-04  0:03:21 1696
   305  3.2730e-03  1.3582e-03  2.6238e-03  2.6749e-05  1.3814e-04  0:02:40 1695
   306  3.0547e-03  1.3537e-03  2.5609e-03  2.5756e-05  1.3603e-04  0:02:08 1694
   307  2.8790e-03  1.3557e-03  2.5274e-03  2.4871e-05  1.3411e-04  0:01:43 1693
   308  2.7336e-03  1.3604e-03  2.5054e-03  2.4064e-05  1.3195e-04  0:01:22 1692

  iter  continuity  x-velocity  y-velocity           k       omega     time/iter
   309  2.6064e-03  1.3637e-03  2.4823e-03  2.3308e-05  1.2925e-04  0:06:44 1691
   310  2.4898e-03  1.3621e-03  2.4510e-03  2.2585e-05  1.2589e-04  0:05:23 1690
   311  2.3809e-03  1.3547e-03  2.4103e-03  2.1875e-05  1.1876e-04  0:04:18 1689
   312  2.2766e-03  1.3401e-03  2.3544e-03  2.1163e-05  1.1349e-04  0:03:26 1688
   313  2.1965e-03  1.3181e-03  2.2905e-03  2.0461e-05  1.0918e-04  0:02:45 1687
   314  2.1297e-03  1.2932e-03  2.2162e-03  1.9747e-05  1.0951e-04  0:02:12 1686
   315  2.0747e-03  1.2617e-03  2.1385e-03  1.9002e-05  1.1068e-04  0:01:45 1685
   316  2.0263e-03  1.2263e-03  2.0570e-03  1.8230e-05  1.0989e-04  0:01:24 1684
   317  1.9820e-03  1.1878e-03  1.9715e-03  1.7438e-05  1.0760e-04  0:01:07 1683
   318  1.9380e-03  1.1469e-03  1.8816e-03  1.6622e-05  1.0417e-04  0:06:30 1682
   319  1.8899e-03  1.1045e-03  1.7880e-03  1.5790e-05  9.9895e-05  0:05:12 1681

  iter  continuity  x-velocity  y-velocity           k       omega     time/iter
   320  1.8351e-03  1.0607e-03  1.6919e-03  1.4954e-05  9.5091e-05  0:04:09 1680
   321  1.7706e-03  1.0173e-03  1.5940e-03  1.4116e-05  8.9751e-05  0:03:19 1679
   322  1.6953e-03  9.7393e-04  1.4926e-03  1.3266e-05  8.3293e-05  0:02:39 1678
   323  1.6238e-03  9.3031e-04  1.3988e-03  1.2445e-05  8.1075e-05  0:02:08 1677
   324  1.5456e-03  8.9274e-04  1.3112e-03  1.1660e-05  8.0494e-05  0:01:42 1676
   325  1.4635e-03  8.5875e-04  1.2333e-03  1.0904e-05  7.8335e-05  0:01:22 1675
   326  1.3806e-03  8.2723e-04  1.1628e-03  1.0175e-05  7.4597e-05  0:06:40 1674
   327  1.3041e-03  7.9979e-04  1.1022e-03  9.4791e-06  6.9922e-05  0:05:20 1673
   328  1.2414e-03  7.7829e-04  1.0497e-03  8.8231e-06  6.5631e-05  0:04:16 1672
   329  1.2074e-03  7.6259e-04  1.0070e-03  8.2178e-06  6.1924e-05  0:03:24 1671
   330  1.2158e-03  7.5071e-04  9.7614e-04  7.6745e-06  5.8632e-05  0:02:43 1670

  iter  continuity  x-velocity  y-velocity           k       omega     time/iter
   331  1.2383e-03  7.4255e-04  9.6474e-04  7.2112e-06  5.5907e-05  0:02:11 1669
   332  1.2734e-03  7.3854e-04  9.7305e-04  6.8654e-06  5.3721e-05  0:01:44 1668
   333  1.3195e-03  7.4005e-04  9.9364e-04  6.5886e-06  5.1875e-05  0:01:24 1667
   334  1.3790e-03  7.4060e-04  1.0204e-03  6.3746e-06  5.0600e-05  0:01:07 1666
   335  1.4393e-03  7.4028e-04  1.0524e-03  6.2150e-06  4.9776e-05  0:06:26 1665
   336  1.4990e-03  7.3969e-04  1.0893e-03  6.1205e-06  4.9392e-05  0:05:09 1664
   337  1.5587e-03  7.3861e-04  1.1284e-03  6.1041e-06  4.9389e-05  0:04:07 1663
   338  1.6171e-03  7.3734e-04  1.1689e-03  6.1526e-06  4.9687e-05  0:03:17 1662
   339  1.6734e-03  7.3620e-04  1.2098e-03  6.2633e-06  5.0092e-05  0:02:38 1661
   340  1.7271e-03  7.3554e-04  1.2508e-03  6.4203e-06  5.0523e-05  0:02:06 1660
   341  1.7787e-03  7.3485e-04  1.2899e-03  6.6156e-06  5.1136e-05  0:07:13 1659

  iter  continuity  x-velocity  y-velocity           k       omega     time/iter
   342  1.8280e-03  7.3669e-04  1.3270e-03  6.8421e-06  5.1918e-05  0:05:46 1658
   343  1.8748e-03  7.4187e-04  1.3620e-03  7.0866e-06  5.2755e-05  0:04:37 1657
   344  1.9188e-03  7.4777e-04  1.3948e-03  7.3406e-06  5.3653e-05  0:03:41 1656
   345  1.9595e-03  7.5336e-04  1.4240e-03  7.5925e-06  5.4681e-05  0:02:57 1655
   346  1.9967e-03  7.5822e-04  1.4490e-03  7.8375e-06  5.5589e-05  0:02:21 1654
   347  2.0296e-03  7.6222e-04  1.4710e-03  8.0682e-06  5.5996e-05  0:01:53 1653
   348  2.0572e-03  7.6514e-04  1.4890e-03  8.2718e-06  5.6667e-05  0:01:30 1652
   349  2.0789e-03  7.6688e-04  1.5023e-03  8.4492e-06  5.7245e-05  0:01:12 1651
   350  2.0940e-03  7.6749e-04  1.5122e-03  8.5968e-06  5.7099e-05  0:06:28 1650
   351  2.1033e-03  7.6703e-04  1.5169e-03  8.7206e-06  5.8066e-05  0:05:10 1649
   352  2.1074e-03  7.6507e-04  1.5187e-03  8.8145e-06  5.9013e-05  0:04:08 1648

  iter  continuity  x-velocity  y-velocity           k       omega     time/iter
   353  2.1049e-03  7.6187e-04  1.5180e-03  8.8799e-06  5.9345e-05  0:03:18 1647
   354  2.0959e-03  7.5773e-04  1.5129e-03  8.9130e-06  5.9119e-05  0:02:38 1646
   355  2.0791e-03  7.5227e-04  1.5041e-03  8.9158e-06  5.8415e-05  0:02:07 1645
   356  2.0552e-03  7.4553e-04  1.4914e-03  8.8903e-06  5.7396e-05  0:01:41 1644
   357  2.0253e-03  7.3755e-04  1.4753e-03  8.8440e-06  5.6271e-05  0:01:21 1643
   358  1.9894e-03  7.2863e-04  1.4549e-03  8.7725e-06  5.5022e-05  0:06:33 1642
   359  1.9477e-03  7.1874e-04  1.4315e-03  8.6768e-06  5.3654e-05  0:05:14 1641
   360  1.9006e-03  7.0798e-04  1.4058e-03  8.5580e-06  5.2259e-05  0:04:11 1640
   361  1.8486e-03  6.9618e-04  1.3782e-03  8.4181e-06  5.0898e-05  0:03:21 1639
   362  1.7920e-03  6.8395e-04  1.3483e-03  8.2625e-06  4.9439e-05  0:02:41 1638
   363  1.7308e-03  6.7153e-04  1.3159e-03  8.0914e-06  4.7905e-05  0:02:08 1637

  iter  continuity  x-velocity  y-velocity           k       omega     time/iter
   364  1.6658e-03  6.5846e-04  1.2817e-03  7.9014e-06  4.6303e-05  0:01:43 1636
   365  1.5976e-03  6.4484e-04  1.2464e-03  7.6958e-06  4.4626e-05  0:01:22 1635
   366  1.5267e-03  6.3083e-04  1.2084e-03  7.4765e-06  4.2936e-05  0:01:06 1634
   367  1.4533e-03  6.1596e-04  1.1704e-03  7.2472e-06  4.1223e-05  0:06:19 1633
   368  1.3778e-03  6.0147e-04  1.1316e-03  7.0066e-06  3.9498e-05  0:05:03 1632
   369  1.3009e-03  5.8664e-04  1.0916e-03  6.7556e-06  3.7751e-05  0:04:02 1631
   370  1.2231e-03  5.7160e-04  1.0500e-03  6.4928e-06  3.5990e-05  0:03:14 1630
   371  1.1436e-03  5.5610e-04  1.0065e-03  6.2228e-06  3.4206e-05  0:02:35 1629
   372  1.0636e-03  5.4037e-04  9.6161e-04  5.9463e-06  3.2403e-05  0:02:04 1628
   373  9.8289e-04  5.2455e-04  9.1603e-04  5.6636e-06  3.0581e-05  0:01:39 1627
   374  9.0196e-04  5.0847e-04  8.6937e-04  5.3739e-06  2.8718e-05  0:01:19 1626

  iter  continuity  x-velocity  y-velocity           k       omega     time/iter
   375  8.2221e-04  4.9217e-04  8.2175e-04  5.0791e-06  2.6837e-05  0:06:28 1625
   376  7.4578e-04  4.7559e-04  7.7380e-04  4.7814e-06  2.4933e-05  0:05:10 1624
   377  6.7464e-04  4.5851e-04  7.2512e-04  4.4433e-06  2.3012e-05  0:04:08 1623
   378  6.0914e-04  4.3870e-04  6.7841e-04  4.1336e-06  2.1126e-05  0:03:18 1622
   379  5.4752e-04  4.2169e-04  6.3284e-04  3.8321e-06  1.9208e-05  0:02:39 1621
   380  4.8973e-04  4.0410e-04  5.8574e-04  3.5317e-06  1.7269e-05  0:02:07 1620
   381  4.3626e-04  3.8599e-04  5.3649e-04  3.2320e-06  1.5312e-05  0:01:41 1619
   382  3.8818e-04  3.6735e-04  4.8598e-04  2.9350e-06  1.3387e-05  0:01:21 1618
   383  3.4764e-04  3.4832e-04  4.3439e-04  2.6436e-06  1.1554e-05  0:06:28 1617
   384  3.1491e-04  3.2940e-04  3.8280e-04  2.3609e-06  9.8647e-06  0:05:10 1616
   385  2.9159e-04  3.1145e-04  3.3303e-04  2.0941e-06  8.3386e-06  0:04:08 1615

  iter  continuity  x-velocity  y-velocity           k       omega     time/iter
   386  2.7897e-04  2.9480e-04  2.8769e-04  1.8613e-06  7.1502e-06  0:03:18 1614
   387  2.8475e-04  2.8089e-04  2.5076e-04  1.6772e-06  6.5847e-06  0:02:39 1613
   388  2.9778e-04  2.7324e-04  2.3180e-04  1.5368e-06  6.7716e-06  0:02:07 1612
   389  3.2155e-04  2.7141e-04  2.3134e-04  1.4335e-06  7.7117e-06  0:01:41 1611
   390  3.6201e-04  2.7308e-04  2.4467e-04  1.3685e-06  9.0745e-06  0:01:21 1610
   391  4.1099e-04  2.7761e-04  2.7056e-04  1.3421e-06  1.0537e-05  0:01:05 1609
   392  4.6341e-04  2.8334e-04  3.0088e-04  1.3392e-06  1.2071e-05  0:06:13 1608
   393  5.1759e-04  2.8828e-04  3.3516e-04  1.3691e-06  1.3656e-05  0:04:59 1607
   394  5.7109e-04  2.9300e-04  3.7215e-04  1.4602e-06  1.5248e-05  0:03:59 1606
   395  6.2312e-04  2.9751e-04  4.1052e-04  1.6308e-06  1.6836e-05  0:03:11 1605
   396  6.7336e-04  3.0172e-04  4.4899e-04  1.8396e-06  1.8399e-05  0:02:33 1604

  iter  continuity  x-velocity  y-velocity           k       omega     time/iter
   397  7.2151e-04  3.0550e-04  4.8695e-04  2.0659e-06  1.9937e-05  0:02:02 1603
   398  7.6721e-04  3.0879e-04  5.2389e-04  2.3000e-06  2.1413e-05  0:01:38 1602
   399  8.1036e-04  3.1150e-04  5.5943e-04  2.5380e-06  2.2848e-05  0:01:18 1601
   400  8.5090e-04  3.1377e-04  5.9333e-04  2.7692e-06  2.4244e-05  0:06:22 1600
   401  8.8863e-04  3.1551e-04  6.2556e-04  2.9895e-06  2.5583e-05  0:05:06 1599
   402  9.2361e-04  3.1684e-04  6.5584e-04  3.1989e-06  2.6831e-05  0:04:04 1598
   403  9.5584e-04  3.1752e-04  6.8379e-04  3.3944e-06  2.7980e-05  0:03:15 1597
   404  9.8494e-04  3.1758e-04  7.0958e-04  3.5777e-06  2.9024e-05  0:02:36 1596
   405  1.0108e-03  3.1705e-04  7.3300e-04  3.7484e-06  2.9957e-05  0:02:05 1595
   406  1.0336e-03  3.1626e-04  7.5406e-04  3.9053e-06  3.0777e-05  0:01:40 1594
   407  1.0532e-03  3.1672e-04  7.7288e-04  4.0461e-06  3.1478e-05  0:01:20 1593

  iter  continuity  x-velocity  y-velocity           k       omega     time/iter
   408  1.0696e-03  3.1837e-04  7.8920e-04  4.1721e-06  3.2071e-05  0:01:04 1592
   409  1.0831e-03  3.2041e-04  8.0321e-04  4.2823e-06  3.2544e-05  0:06:09 1591
   410  1.0937e-03  3.2304e-04  8.1515e-04  4.3774e-06  3.2908e-05  0:04:55 1590
   411  1.1008e-03  3.2590e-04  8.2410e-04  4.4606e-06  3.3180e-05  0:03:56 1589
   412  1.1045e-03  3.2883e-04  8.3031e-04  4.5287e-06  3.3351e-05  0:03:09 1588
   413  1.1053e-03  3.3150e-04  8.3404e-04  4.5829e-06  3.3412e-05  0:02:31 1587
   414  1.1030e-03  3.3363e-04  8.3535e-04  4.6229e-06  3.3370e-05  0:02:01 1586
   415  1.0977e-03  3.3510e-04  8.3442e-04  4.6480e-06  3.3205e-05  0:01:36 1585
   416  1.0895e-03  3.3605e-04  8.3106e-04  4.6594e-06  3.2913e-05  0:01:17 1584
   417  1.0785e-03  3.3656e-04  8.2539e-04  4.6571e-06  3.2526e-05  0:06:18 1583
   418  1.0648e-03  3.3679e-04  8.1791e-04  4.6424e-06  3.2113e-05  0:05:02 1582

  iter  continuity  x-velocity  y-velocity           k       omega     time/iter
   419  1.0485e-03  3.3639e-04  8.0917e-04  4.6168e-06  3.1622e-05  0:04:02 1581
   420  1.0298e-03  3.3544e-04  7.9818e-04  4.5782e-06  3.1064e-05  0:03:13 1580
   421  1.0089e-03  3.3418e-04  7.8572e-04  4.5282e-06  3.0406e-05  0:02:35 1579
   422  9.8560e-04  3.3249e-04  7.7186e-04  4.4672e-06  2.9714e-05  0:02:04 1578
   423  9.6023e-04  3.3028e-04  7.5603e-04  4.3969e-06  2.8981e-05  0:01:39 1577
   424  9.3293e-04  3.2781e-04  7.3862e-04  4.3169e-06  2.8203e-05  0:01:19 1576
   425  9.0384e-04  3.2484e-04  7.2029e-04  4.2285e-06  2.7380e-05  0:06:18 1575
   426  8.7313e-04  3.2136e-04  7.0084e-04  4.1326e-06  2.6496e-05  0:05:02 1574
   427  8.4090e-04  3.1768e-04  6.7970e-04  4.0273e-06  2.5565e-05  0:04:02 1573
   428  8.0729e-04  3.1309e-04  6.5782e-04  3.9142e-06  2.4605e-05  0:03:13 1572
   429  7.7220e-04  3.0804e-04  6.3529e-04  3.7950e-06  2.3614e-05  0:02:34 1571

  iter  continuity  x-velocity  y-velocity           k       omega     time/iter
   430  7.3590e-04  3.0247e-04  6.1172e-04  3.6688e-06  2.2586e-05  0:02:04 1570
   431  6.9858e-04  2.9622e-04  5.8782e-04  3.5374e-06  2.1528e-05  0:01:39 1569
   432  6.6026e-04  2.8983e-04  5.6312e-04  3.3999e-06  2.0414e-05  0:01:19 1568
   433  6.2103e-04  2.8279e-04  5.3764e-04  3.2574e-06  1.9265e-05  0:06:17 1567
   434  5.8129e-04  2.7535e-04  5.1140e-04  3.1096e-06  1.8112e-05  0:05:01 1566
   435  5.4112e-04  2.6725e-04  4.8495e-04  2.9589e-06  1.6948e-05  0:04:01 1565
   436  5.0045e-04  2.5904e-04  4.5789e-04  2.8051e-06  1.5775e-05  0:03:12 1564
   437  4.5945e-04  2.5040e-04  4.3021e-04  2.6482e-06  1.4571e-05  0:02:34 1563
   438  4.1850e-04  2.4147e-04  4.0224e-04  2.4884e-06  1.3350e-05  0:02:03 1562
   439  3.7901e-04  2.3223e-04  3.7382e-04  2.3263e-06  1.1981e-05  0:01:38 1561
   440  3.4122e-04  2.2280e-04  3.4526e-04  2.1641e-06  1.0737e-05  0:01:19 1560

  iter  continuity  x-velocity  y-velocity           k       omega     time/iter
   441  3.0487e-04  2.1318e-04  3.1676e-04  2.0010e-06  9.5933e-06  0:01:03 1559
   442  2.6997e-04  2.0338e-04  2.8837e-04  1.8246e-06  8.5109e-06  0:06:02 1558
   443  2.3707e-04  1.9255e-04  2.6123e-04  1.6625e-06  7.5094e-06  0:04:49 1557
   444  2.0598e-04  1.8304e-04  2.3504e-04  1.5053e-06  6.5443e-06  0:03:51 1556
   445  1.7729e-04  1.7355e-04  2.0905e-04  1.3521e-06  5.6278e-06  0:03:05 1555
   446  1.5205e-04  1.6420e-04  1.8326e-04  1.2056e-06  4.7776e-06  0:02:28 1554
   447  1.3238e-04  1.5525e-04  1.5827e-04  1.0686e-06  4.0367e-06  0:01:58 1553
   448  1.1887e-04  1.4696e-04  1.3561e-04  9.4840e-07  3.5187e-06  0:01:34 1552
   449  1.1507e-04  1.3997e-04  1.1787e-04  8.5308e-07  3.3293e-06  0:01:16 1551
   450  1.2180e-04  1.3610e-04  1.0975e-04  7.8142e-07  3.5119e-06  0:06:10 1550
   451  1.3421e-04  1.3515e-04  1.0793e-04  7.2699e-07  3.9702e-06  0:04:56 1549

  iter  continuity  x-velocity  y-velocity           k       omega     time/iter
   452  1.5436e-04  1.3549e-04  1.1166e-04  6.9947e-07  4.5804e-06  0:03:57 1548
   453  1.7770e-04  1.3727e-04  1.2079e-04  6.8413e-07  5.2661e-06  0:03:09 1547
   454  2.0416e-04  1.3958e-04  1.3382e-04  6.8197e-07  5.9937e-06  0:02:31 1546
   455  2.3204e-04  1.4191e-04  1.4906e-04  6.9836e-07  6.7378e-06  0:02:01 1545
   456  2.5958e-04  1.4415e-04  1.6601e-04  7.3606e-07  7.4897e-06  0:01:37 1544
   457  2.8635e-04  1.4626e-04  1.8388e-04  8.0213e-07  8.2378e-06  0:01:17 1543
   458  3.1218e-04  1.4821e-04  2.0198e-04  8.9109e-07  8.9756e-06  0:01:02 1542
   459  3.3691e-04  1.5000e-04  2.1998e-04  9.9282e-07  9.6312e-06  0:05:58 1541
   460  3.6045e-04  1.5155e-04  2.3757e-04  1.0998e-06  1.0408e-05  0:04:46 1540
   461  3.8284e-04  1.5287e-04  2.5449e-04  1.2094e-06  1.1273e-05  0:03:49 1539
   462  4.0396e-04  1.5387e-04  2.7089e-04  1.3181e-06  1.2058e-05  0:03:03 1538

  iter  continuity  x-velocity  y-velocity           k       omega     time/iter
   463  4.2366e-04  1.5466e-04  2.8686e-04  1.4223e-06  1.2726e-05  0:02:26 1537
   464  4.4185e-04  1.5524e-04  3.0201e-04  1.5213e-06  1.3290e-05  0:01:57 1536
   465  4.5850e-04  1.5556e-04  3.1604e-04  1.6146e-06  1.3775e-05  0:01:33 1535
   466  4.7352e-04  1.5558e-04  3.2901e-04  1.7007e-06  1.4195e-05  0:01:15 1534
   467  4.8697e-04  1.5514e-04  3.4085e-04  1.7812e-06  1.4558e-05  0:06:06 1533
   468  4.9883e-04  1.5474e-04  3.5198e-04  1.8558e-06  1.4869e-05  0:04:53 1532
   469  5.0904e-04  1.5446e-04  3.6172e-04  1.9239e-06  1.5132e-05  0:03:54 1531
   470  5.1758e-04  1.5488e-04  3.7037e-04  1.9854e-06  1.5374e-05  0:03:07 1530
   471  5.2464e-04  1.5579e-04  3.7778e-04  2.0410e-06  1.5554e-05  0:02:30 1529
   472  5.2981e-04  1.5689e-04  3.8397e-04  2.0895e-06  1.5679e-05  0:02:00 1528
   473  5.3349e-04  1.5804e-04  3.8908e-04  2.1311e-06  1.5762e-05  0:01:36 1527

  iter  continuity  x-velocity  y-velocity           k       omega     time/iter
   474  5.3564e-04  1.5908e-04  3.9294e-04  2.1662e-06  1.5805e-05  0:01:16 1526
   475  5.3648e-04  1.6008e-04  3.9581e-04  2.1952e-06  1.5809e-05  0:01:01 1525
   476  5.3586e-04  1.6099e-04  3.9766e-04  2.2177e-06  1.5788e-05  0:05:54 1524
   477  5.3393e-04  1.6168e-04  3.9839e-04  2.2337e-06  1.5727e-05  0:04:43 1523
   478  5.3075e-04  1.6224e-04  3.9823e-04  2.2438e-06  1.5624e-05  0:03:46 1522
   479  5.2622e-04  1.6260e-04  3.9709e-04  2.2482e-06  1.5487e-05  0:03:01 1521
   480  5.2041e-04  1.6292e-04  3.9488e-04  2.2473e-06  1.5319e-05  0:02:24 1520
   481  5.1342e-04  1.6290e-04  3.9180e-04  2.2400e-06  1.5117e-05  0:01:56 1519
   482  5.0531e-04  1.6268e-04  3.8791e-04  2.2275e-06  1.4883e-05  0:01:32 1518
   483  4.9609e-04  1.6233e-04  3.8328e-04  2.2096e-06  1.4620e-05  0:01:14 1517
   484  4.8580e-04  1.6175e-04  3.7793e-04  2.1861e-06  1.4327e-05  0:06:02 1516

  iter  continuity  x-velocity  y-velocity           k       omega     time/iter
   485  4.7452e-04  1.6096e-04  3.7163e-04  2.1577e-06  1.3995e-05  0:04:50 1515
   486  4.6222e-04  1.5996e-04  3.6459e-04  2.1246e-06  1.3654e-05  0:03:52 1514
   487  4.4903e-04  1.5881e-04  3.5708e-04  2.0870e-06  1.3289e-05  0:03:05 1513
   488  4.3498e-04  1.5741e-04  3.4869e-04  2.0443e-06  1.2898e-05  0:02:28 1512
   489  4.2013e-04  1.5572e-04  3.3968e-04  1.9978e-06  1.2485e-05  0:01:58 1511
   490  4.0451e-04  1.5382e-04  3.3010e-04  1.9473e-06  1.2064e-05  0:01:35 1510
   491  3.8827e-04  1.5167e-04  3.1998e-04  1.8929e-06  1.1622e-05  0:01:16 1509
   492  3.7143e-04  1.4916e-04  3.0930e-04  1.8346e-06  1.1156e-05  0:06:02 1508
   493  3.5398e-04  1.4650e-04  2.9817e-04  1.7735e-06  1.0670e-05  0:04:49 1507
   494  3.3600e-04  1.4358e-04  2.8659e-04  1.7095e-06  1.0165e-05  0:03:51 1506
   495  3.1755e-04  1.4041e-04  2.7455e-04  1.6427e-06  9.6481e-06  0:03:05 1505

  iter  continuity  x-velocity  y-velocity           k       omega     time/iter
   496  2.9861e-04  1.3702e-04  2.6207e-04  1.5733e-06  9.1190e-06  0:02:28 1504
   497  2.7935e-04  1.3343e-04  2.4927e-04  1.5018e-06  8.5804e-06  0:01:58 1503
   498  2.5982e-04  1.2966e-04  2.3617e-04  1.4282e-06  8.0304e-06  0:01:35 1502
   499  2.4007e-04  1.2569e-04  2.2278e-04  1.3528e-06  7.4562e-06  0:01:16 1501
   500  2.2016e-04  1.2153e-04  2.0914e-04  1.2763e-06  6.9142e-06  0:01:00 1500
   501  2.0044e-04  1.1724e-04  1.9542e-04  1.1987e-06  6.3708e-06  0:05:48 1499
   502  1.8150e-04  1.1281e-04  1.8153e-04  1.1199e-06  5.8254e-06  0:04:38 1498
   503  1.6328e-04  1.0824e-04  1.6761e-04  1.0405e-06  5.2753e-06  0:03:42 1497
   504  1.4571e-04  1.0352e-04  1.5358e-04  9.5304e-07  4.7246e-06  0:02:58 1496
   505  1.2907e-04  9.8251e-05  1.4011e-04  8.7238e-07  4.1932e-06  0:02:22 1495
   506  1.1320e-04  9.3611e-05  1.2707e-04  7.9410e-07  3.6678e-06  0:01:54 1494

  iter  continuity  x-velocity  y-velocity           k       omega     time/iter
   507  9.8373e-05  8.8923e-05  1.1394e-04  7.1765e-07  3.1607e-06  0:01:31 1493
   508  8.4903e-05  8.4194e-05  1.0073e-04  6.4389e-07  2.6861e-06  0:01:13 1492
   509  7.3557e-05  7.9527e-05  8.7714e-05  5.7391e-07  2.2597e-06  0:00:58 1491
   510  6.4956e-05  7.5113e-05  7.5318e-05  5.0857e-07  1.8986e-06  0:05:44 1490
   511  5.9604e-05  7.1060e-05  6.4270e-05  4.5240e-07  1.6772e-06  0:04:35 1489
   512  5.9191e-05  6.7824e-05  5.6308e-05  4.0996e-07  1.6396e-06  0:03:40 1488
   513  6.2841e-05  6.6268e-05  5.3211e-05  3.7752e-07  1.7545e-06  0:02:56 1487
   514  6.9603e-05  6.6027e-05  5.3000e-05  3.5344e-07  2.0140e-06  0:02:21 1486
   515  8.0053e-05  6.6362e-05  5.5577e-05  3.4247e-07  2.3319e-06  0:01:52 1485
   516  9.1918e-05  6.7436e-05  6.0766e-05  3.3655e-07  2.6722e-06  0:01:30 1484
   517  1.0522e-04  6.8629e-05  6.7496e-05  3.3777e-07  3.0256e-06  0:01:12 1483

  iter  continuity  x-velocity  y-velocity           k       omega     time/iter
   518  1.1898e-04  6.9788e-05  7.5237e-05  3.4880e-07  3.3819e-06  0:00:57 1482
   519  1.3241e-04  7.0871e-05  8.3640e-05  3.7189e-07  3.7377e-06  0:05:42 1481
   520  1.4540e-04  7.1845e-05  9.2296e-05  4.0931e-07  4.0869e-06  0:04:34 1480
   521  1.5784e-04  7.2719e-05  1.0097e-04  4.5566e-07  4.4269e-06  0:03:39 1479
   522  1.6971e-04  7.3498e-05  1.0949e-04  5.0629e-07  4.7587e-06  0:02:55 1478
   523  1.8096e-04  7.4134e-05  1.1777e-04  5.5869e-07  5.0784e-06  0:02:20 1477
   524  1.9152e-04  7.4624e-05  1.2570e-04  6.1182e-07  5.3771e-06  0:01:52 1476
   525  2.0135e-04  7.4980e-05  1.3328e-04  6.6389e-07  5.6594e-06  0:01:29 1475
   526  2.1044e-04  7.5214e-05  1.4052e-04  7.1359e-07  5.9391e-06  0:01:11 1474
   527  2.1884e-04  7.5342e-05  1.4741e-04  7.6084e-07  6.2033e-06  0:05:52 1473
   528  2.2650e-04  7.5343e-05  1.5391e-04  8.0542e-07  6.4502e-06  0:04:41 1472

  iter  continuity  x-velocity  y-velocity           k       omega     time/iter
   529  2.3344e-04  7.5211e-05  1.6000e-04  8.4727e-07  6.6791e-06  0:03:45 1471
   530  2.3965e-04  7.4999e-05  1.6570e-04  8.8626e-07  6.8870e-06  0:03:00 1470
   531  2.4512e-04  7.4816e-05  1.7098e-04  9.2215e-07  7.0732e-06  0:02:24 1469
   532  2.4987e-04  7.4845e-05  1.7573e-04  9.5497e-07  7.2378e-06  0:01:55 1468
   533  2.5389e-04  7.5261e-05  1.7994e-04  9.8470e-07  7.3804e-06  0:01:32 1467
   534  2.5718e-04  7.5871e-05  1.8368e-04  1.0113e-06  7.5010e-06  0:01:13 1466
   535  2.5975e-04  7.6556e-05  1.8695e-04  1.0346e-06  7.5989e-06  0:05:52 1465
   536  2.6159e-04  7.7252e-05  1.8967e-04  1.0548e-06  7.6722e-06  0:04:41 1464
   537  2.6272e-04  7.7922e-05  1.9182e-04  1.0717e-06  7.7259e-06  0:03:45 1463
   538  2.6313e-04  7.8541e-05  1.9345e-04  1.0856e-06  7.7581e-06  0:03:00 1462
   539  2.6286e-04  7.9071e-05  1.9455e-04  1.0964e-06  7.7623e-06  0:02:24 1461

  iter  continuity  x-velocity  y-velocity           k       omega     time/iter
   540  2.6190e-04  7.9514e-05  1.9515e-04  1.1041e-06  7.7443e-06  0:01:55 1460
   541  2.6028e-04  7.9844e-05  1.9521e-04  1.1089e-06  7.7091e-06  0:01:32 1459
   542  2.5798e-04  8.0046e-05  1.9469e-04  1.1105e-06  7.6507e-06  0:01:13 1458
   543  2.5504e-04  8.0163e-05  1.9369e-04  1.1092e-06  7.5762e-06  0:05:50 1457
   544  2.5150e-04  8.0187e-05  1.9222e-04  1.1052e-06  7.4845e-06  0:04:40 1456
   545  2.4739e-04  8.0117e-05  1.9038e-04  1.0983e-06  7.3765e-06  0:03:44 1455
   546  2.4273e-04  7.9942e-05  1.8815e-04  1.0888e-06  7.2528e-06  0:02:59 1454
   547  2.3753e-04  7.9666e-05  1.8547e-04  1.0768e-06  7.1137e-06  0:02:23 1453
   548  2.3184e-04  7.9293e-05  1.8239e-04  1.0623e-06  6.9598e-06  0:06:45 1452
   549  2.2566e-04  7.8819e-05  1.7895e-04  1.0454e-06  6.7918e-06  0:05:24 1451
   550  2.1903e-04  7.8244e-05  1.7517e-04  1.0261e-06  6.6100e-06  0:04:19 1450

  iter  continuity  x-velocity  y-velocity           k       omega     time/iter
   551  2.1197e-04  7.7546e-05  1.7103e-04  1.0046e-06  6.4154e-06  0:03:27 1449
   552  2.0453e-04  7.6714e-05  1.6659e-04  9.8080e-07  6.2084e-06  0:02:45 1448
   553  1.9672e-04  7.5738e-05  1.6189e-04  9.5521e-07  5.9897e-06  0:02:12 1447
   554  1.8857e-04  7.4643e-05  1.5690e-04  9.2775e-07  5.7608e-06  0:01:46 1446
   555  1.8009e-04  7.3413e-05  1.5157e-04  8.9853e-07  5.5218e-06  0:01:24 1445
   556  1.7135e-04  7.2006e-05  1.4604e-04  8.6775e-07  5.2738e-06  0:01:08 1444
   557  1.6238e-04  7.0530e-05  1.4031e-04  8.3561e-07  5.0182e-06  0:05:43 1443
   558  1.5318e-04  6.8928e-05  1.3434e-04  8.0211e-07  4.7554e-06  0:04:34 1442
   559  1.4380e-04  6.7208e-05  1.2813e-04  7.6731e-07  4.4862e-06  0:03:39 1441
   560  1.3426e-04  6.5378e-05  1.2174e-04  7.3150e-07  4.2117e-06  0:02:55 1440
   561  1.2458e-04  6.3445e-05  1.1519e-04  6.9474e-07  3.9329e-06  0:02:20 1439

  iter  continuity  x-velocity  y-velocity           k       omega     time/iter
   562  1.1481e-04  6.1411e-05  1.0850e-04  6.5713e-07  3.6518e-06  0:01:52 1438
   563  1.0506e-04  5.9298e-05  1.0168e-04  6.1886e-07  3.3698e-06  0:01:29 1437
   564  9.5648e-05  5.7115e-05  9.4794e-05  5.8006e-07  3.0878e-06  0:01:11 1436
   565  8.6599e-05  5.4867e-05  8.7862e-05  5.3657e-07  2.8080e-06  0:05:44 1435
   566  7.7988e-05  5.2330e-05  8.1203e-05  4.9659e-07  2.5375e-06  0:04:35 1434
   567  6.9646e-05  5.0081e-05  7.4723e-05  4.5752e-07  2.2659e-06  0:03:40 1433
   568  6.1616e-05  4.7801e-05  6.8141e-05  4.1888e-07  1.9963e-06  0:02:56 1432
   569  5.3951e-05  4.5471e-05  6.1468e-05  3.8067e-07  1.7314e-06  0:02:21 1431
   570  4.6800e-05  4.3102e-05  5.4780e-05  3.4341e-07  1.4786e-06  0:01:52 1430
   571  4.0407e-05  4.0732e-05  4.8138e-05  3.0762e-07  1.2452e-06  0:01:30 1429
   572  3.5236e-05  3.8426e-05  4.1660e-05  2.7366e-07  1.0450e-06  0:01:12 1428

  iter  continuity  x-velocity  y-velocity           k       omega     time/iter
   573  3.1291e-05  3.6276e-05  3.5604e-05  2.4256e-07  8.9341e-07  0:05:43 1427
   574  2.9113e-05  3.4355e-05  3.0437e-05  2.1726e-07  8.1684e-07  0:04:34 1426
   575  2.9605e-05  3.2987e-05  2.7453e-05  1.9833e-07  8.2644e-07  0:03:39 1425
   576  3.1788e-05  3.2516e-05  2.6471e-05  1.8378e-07  9.1983e-07  0:02:55 1424
   577  3.5703e-05  3.2497e-05  2.6741e-05  1.7360e-07  1.0644e-06  0:02:20 1423
   578  4.1198e-05  3.2740e-05  2.8442e-05  1.6957e-07  1.2280e-06  0:01:52 1422
   579  4.7222e-05  3.3340e-05  3.1294e-05  1.6777e-07  1.3996e-06  0:01:29 1421
   580  5.3870e-05  3.3936e-05  3.4750e-05  1.6969e-07  1.5753e-06  0:01:12 1420
   581  6.0576e-05  3.4504e-05  3.8674e-05  1.7675e-07  1.7516e-06  0:00:57 1419
   582  6.7102e-05  3.5028e-05  4.2852e-05  1.9057e-07  1.9264e-06  0:05:29 1418
   583  7.3408e-05  3.5500e-05  4.7126e-05  2.1034e-07  2.0970e-06  0:04:23 1417

  iter  continuity  x-velocity  y-velocity           k       omega     time/iter
   584  7.9442e-05  3.5927e-05  5.1383e-05  2.3373e-07  2.2628e-06  0:03:30 1416
   585  8.5174e-05  3.6299e-05  5.5548e-05  2.5877e-07  2.4237e-06  0:02:48 1415
   586  9.0581e-05  3.6602e-05  5.9575e-05  2.8453e-07  2.5782e-06  0:02:15 1414
   587  9.5656e-05  3.6834e-05  6.3441e-05  3.1051e-07  2.7259e-06  0:01:48 1413
   588  1.0039e-04  3.6995e-05  6.7121e-05  3.3576e-07  2.8678e-06  0:01:26 1412
   589  1.0477e-04  3.7096e-05  7.0627e-05  3.5978e-07  3.0025e-06  0:01:09 1411
   590  1.0880e-04  3.7141e-05  7.3930e-05  3.8248e-07  3.1268e-06  0:05:37 1410
   591  1.1246e-04  3.7115e-05  7.7015e-05  4.0390e-07  3.2406e-06  0:04:29 1409
   592  1.1575e-04  3.7035e-05  7.9908e-05  4.2389e-07  3.3439e-06  0:03:35 1408
   593  1.1868e-04  3.6931e-05  8.2611e-05  4.4238e-07  3.4362e-06  0:02:52 1407
   594  1.2124e-04  3.6863e-05  8.5076e-05  4.5934e-07  3.5178e-06  0:02:18 1406

  iter  continuity  x-velocity  y-velocity           k       omega     time/iter
   595  1.2343e-04  3.6936e-05  8.7292e-05  4.7484e-07  3.5885e-06  0:01:50 1405
   596  1.2525e-04  3.7171e-05  8.9233e-05  4.8880e-07  3.6485e-06  0:01:28 1404
   597  1.2671e-04  3.7469e-05  9.0918e-05  5.0121e-07  3.6975e-06  0:01:10 1403
   598  1.2781e-04  3.7788e-05  9.2341e-05  5.1202e-07  3.7358e-06  0:05:37 1402
   599  1.2854e-04  3.8103e-05  9.3509e-05  5.2129e-07  3.7636e-06  0:04:29 1401
   600  1.2894e-04  3.8398e-05  9.4418e-05  5.2898e-07  3.7809e-06  0:03:35 1400
   601  1.2899e-04  3.8665e-05  9.5077e-05  5.3514e-07  3.7880e-06  0:02:52 1399
   602  1.2870e-04  3.8883e-05  9.5451e-05  5.3963e-07  3.7852e-06  0:02:17 1398
   603  1.2809e-04  3.9050e-05  9.5595e-05  5.4276e-07  3.7727e-06  0:01:50 1397
   604  1.2715e-04  3.9169e-05  9.5515e-05  5.4440e-07  3.7511e-06  0:01:28 1396
   605  1.2591e-04  3.9246e-05  9.5205e-05  5.4463e-07  3.7206e-06  0:01:10 1395

  iter  continuity  x-velocity  y-velocity           k       omega     time/iter
   606  1.2438e-04  3.9276e-05  9.4663e-05  5.4347e-07  3.6814e-06  0:05:35 1394
   607  1.2255e-04  3.9261e-05  9.3898e-05  5.4095e-07  3.6339e-06  0:04:28 1393
   608  1.2045e-04  3.9203e-05  9.2912e-05  5.3709e-07  3.5784e-06  0:03:34 1392
   609  1.1808e-04  3.9096e-05  9.1724e-05  5.3198e-07  3.5152e-06  0:02:51 1391
   610  1.1546e-04  3.8945e-05  9.0377e-05  5.2562e-07  3.4445e-06  0:02:17 1390
   611  1.1260e-04  3.8745e-05  8.8837e-05  5.1807e-07  3.3668e-06  0:01:49 1389
   612  1.0951e-04  3.8499e-05  8.7120e-05  5.0935e-07  3.2823e-06  0:01:27 1388
   613  1.0620e-04  3.8196e-05  8.5211e-05  4.9942e-07  3.1915e-06  0:01:10 1387
   614  1.0268e-04  3.7837e-05  8.3132e-05  4.8861e-07  3.0948e-06  0:05:33 1386
   615  9.8988e-05  3.7415e-05  8.0934e-05  4.7675e-07  2.9926e-06  0:04:26 1385
   616  9.5121e-05  3.6929e-05  7.8608e-05  4.6395e-07  2.8852e-06  0:03:33 1384

  iter  continuity  x-velocity  y-velocity           k       omega     time/iter
   617  9.1091e-05  3.6376e-05  7.6141e-05  4.5025e-07  2.7729e-06  0:02:50 1383
   618  8.6915e-05  3.5758e-05  7.3540e-05  4.3572e-07  2.6563e-06  0:02:16 1382
   619  8.2607e-05  3.5077e-05  7.0810e-05  4.2041e-07  2.5356e-06  0:01:49 1381
   620  7.8183e-05  3.4334e-05  6.7964e-05  4.0440e-07  2.4096e-06  0:01:27 1380
   621  7.3656e-05  3.3535e-05  6.5019e-05  3.8781e-07  2.2821e-06  0:01:09 1379
   622  6.9040e-05  3.2686e-05  6.1981e-05  3.7066e-07  2.1530e-06  0:00:56 1378
   623  6.4354e-05  3.1789e-05  5.8855e-05  3.5296e-07  2.0212e-06  0:05:20 1377
   624  5.9607e-05  3.0842e-05  5.5647e-05  3.3480e-07  1.8871e-06  0:04:16 1376
   625  5.4819e-05  2.9846e-05  5.2368e-05  3.1622e-07  1.7514e-06  0:03:24 1375
   626  5.0090e-05  2.8811e-05  4.9034e-05  2.9731e-07  1.6150e-06  0:02:43 1374
   627  4.5555e-05  2.7740e-05  4.5662e-05  2.7817e-07  1.4785e-06  0:02:11 1373

  iter  continuity  x-velocity  y-velocity           k       omega     time/iter
   628  4.1180e-05  2.6634e-05  4.2270e-05  2.5887e-07  1.3427e-06  0:01:44 1372
   629  3.6946e-05  2.5498e-05  3.8870e-05  2.3759e-07  1.2083e-06  0:01:23 1371
   630  3.2925e-05  2.4230e-05  3.5606e-05  2.1798e-07  1.0781e-06  0:01:07 1370
   631  2.9062e-05  2.3104e-05  3.2430e-05  1.9891e-07  9.4873e-07  0:05:27 1369
   632  2.5406e-05  2.1967e-05  2.9227e-05  1.8018e-07  8.2177e-07  0:04:22 1368
   633  2.2032e-05  2.0814e-05  2.5990e-05  1.6207e-07  7.0074e-07  0:03:29 1367
   634  1.9095e-05  1.9666e-05  2.2773e-05  1.4477e-07  5.8971e-07  0:02:47 1366
   635  1.6790e-05  1.8557e-05  1.9643e-05  1.2843e-07  4.9334e-07  0:02:14 1365
   636  1.5133e-05  1.7530e-05  1.6744e-05  1.1363e-07  4.2134e-07  0:01:47 1364
   637  1.4433e-05  1.6617e-05  1.4319e-05  1.0194e-07  3.8864e-07  0:01:25 1363
   638  1.4964e-05  1.6016e-05  1.2967e-05  9.3278e-08  3.9837e-07  0:01:08 1362

  iter  continuity  x-velocity  y-velocity           k       omega     time/iter
   639  1.6128e-05  1.5836e-05  1.2630e-05  8.6743e-08  4.4893e-07  0:00:55 1361
   640  1.8207e-05  1.5860e-05  1.2951e-05  8.3060e-08  5.2207e-07  0:05:16 1360
   641  2.0899e-05  1.6051e-05  1.3913e-05  8.1100e-08  6.0366e-07  0:04:12 1359
   642  2.3972e-05  1.6337e-05  1.5420e-05  8.0743e-08  6.8996e-07  0:03:22 1358
   643  2.7279e-05  1.6630e-05  1.7214e-05  8.2602e-08  7.7736e-07  0:02:41 1357
   644  3.0557e-05  1.6908e-05  1.9217e-05  8.7254e-08  8.6496e-07  0:02:09 1356
   645  3.3741e-05  1.7160e-05  2.1314e-05  9.5489e-08  9.5140e-07  0:01:43 1355
   646  3.6812e-05  1.7388e-05  2.3433e-05  1.0612e-07  1.0357e-06  0:01:22 1354
   647  3.9742e-05  1.7593e-05  2.5531e-05  1.1807e-07  1.1176e-06  0:01:06 1353
   648  4.2522e-05  1.7767e-05  2.7574e-05  1.3058e-07  1.1969e-06  0:00:53 1352
   649  4.5142e-05  1.7909e-05  2.9549e-05  1.4339e-07  1.2731e-06  0:05:12 1351

  iter  continuity  x-velocity  y-velocity           k       omega     time/iter
   650  4.7595e-05  1.8016e-05  3.1439e-05  1.5617e-07  1.3462e-06  0:04:10 1350
   651  4.9875e-05  1.8087e-05  3.3244e-05  1.6842e-07  1.4161e-06  0:03:20 1349
   652  5.1978e-05  1.8130e-05  3.4954e-05  1.8006e-07  1.4820e-06  0:02:40 1348
   653  5.3901e-05  1.8139e-05  3.6553e-05  1.9103e-07  1.5419e-06  0:02:08 1347
   654  5.5644e-05  1.8119e-05  3.8052e-05  2.0131e-07  1.5965e-06  0:01:42 1346
   655  5.7207e-05  1.8079e-05  3.9461e-05  2.1090e-07  1.6464e-06  0:01:21 1345
   656  5.8589e-05  1.8038e-05  4.0769e-05  2.1978e-07  1.6913e-06  0:01:05 1344
   657  5.9792e-05  1.8031e-05  4.1958e-05  2.2791e-07  1.7312e-06  0:00:52 1343
   658  6.0815e-05  1.8112e-05  4.3025e-05  2.3530e-07  1.7660e-06  0:05:10 1342
   659  6.1660e-05  1.8251e-05  4.3965e-05  2.4191e-07  1.7956e-06  0:04:08 1341
   660  6.2330e-05  1.8411e-05  4.4778e-05  2.4776e-07  1.8200e-06  0:03:18 1340

  iter  continuity  x-velocity  y-velocity           k       omega     time/iter
   661  6.2821e-05  1.8578e-05  4.5460e-05  2.5283e-07  1.8391e-06  0:02:38 1339
   662  6.3141e-05  1.8738e-05  4.6015e-05  2.5713e-07  1.8532e-06  0:02:07 1338
   663  6.3292e-05  1.8887e-05  4.6441e-05  2.6068e-07  1.8622e-06  0:01:41 1337
   664  6.3275e-05  1.9021e-05  4.6754e-05  2.6348e-07  1.8661e-06  0:01:21 1336
   665  6.3094e-05  1.9132e-05  4.6941e-05  2.6550e-07  1.8651e-06  0:05:32 1335
   666  6.2754e-05  1.9219e-05  4.7006e-05  2.6682e-07  1.8593e-06  0:04:25 1334
   667  6.2258e-05  1.9281e-05  4.6951e-05  2.6742e-07  1.8490e-06  0:03:32 1333
   668  6.1611e-05  1.9319e-05  4.6779e-05  2.6733e-07  1.8340e-06  0:02:49 1332
   669  6.0819e-05  1.9332e-05  4.6496e-05  2.6656e-07  1.8146e-06  0:02:15 1331
   670  5.9885e-05  1.9322e-05  4.6102e-05  2.6512e-07  1.7910e-06  0:01:48 1330
   671  5.8815e-05  1.9289e-05  4.5604e-05  2.6304e-07  1.7633e-06  0:01:27 1329

  iter  continuity  x-velocity  y-velocity           k       omega     time/iter
   672  5.7617e-05  1.9232e-05  4.5005e-05  2.6033e-07  1.7316e-06  0:01:09 1328
   673  5.6295e-05  1.9150e-05  4.4315e-05  2.5701e-07  1.6961e-06  0:05:21 1327
   674  5.4855e-05  1.9044e-05  4.3533e-05  2.5312e-07  1.6571e-06  0:04:16 1326
   675  5.3306e-05  1.8917e-05  4.2665e-05  2.4867e-07  1.6146e-06  0:03:25 1325
   676  5.1652e-05  1.8766e-05  4.1718e-05  2.4370e-07  1.5689e-06  0:02:44 1324
   677  4.9900e-05  1.8584e-05  4.0689e-05  2.3821e-07  1.5201e-06  0:02:11 1323
   678  4.8057e-05  1.8368e-05  3.9587e-05  2.3225e-07  1.4684e-06  0:01:45 1322
   679  4.6129e-05  1.8117e-05  3.8411e-05  2.2583e-07  1.4141e-06  0:01:24 1321
   680  4.4125e-05  1.7833e-05  3.7166e-05  2.1899e-07  1.3573e-06  0:01:07 1320
   681  4.2050e-05  1.7515e-05  3.5855e-05  2.1175e-07  1.2983e-06  0:05:17 1319
   682  3.9912e-05  1.7165e-05  3.4481e-05  2.0413e-07  1.2372e-06  0:04:14 1318

  iter  continuity  x-velocity  y-velocity           k       omega     time/iter
   683  3.7719e-05  1.6784e-05  3.3044e-05  1.9618e-07  1.1744e-06  0:03:23 1317
   684  3.5478e-05  1.6374e-05  3.1557e-05  1.8792e-07  1.1099e-06  0:02:42 1316
   685  3.3194e-05  1.5940e-05  3.0029e-05  1.7939e-07  1.0442e-06  0:02:10 1315
   686  3.0878e-05  1.5482e-05  2.8461e-05  1.7061e-07  9.7732e-07  0:01:44 1314
   687  2.8535e-05  1.5000e-05  2.6855e-05  1.6162e-07  9.0977e-07  0:01:23 1313
   688  2.6180e-05  1.4498e-05  2.5219e-05  1.5245e-07  8.4181e-07  0:05:29 1312
   689  2.3879e-05  1.3979e-05  2.3562e-05  1.4313e-07  7.7382e-07  0:04:23 1311
   690  2.1672e-05  1.3443e-05  2.1891e-05  1.3371e-07  7.0620e-07  0:03:30 1310
   691  1.9539e-05  1.2892e-05  2.0215e-05  1.2320e-07  6.3933e-07  0:02:48 1309
   692  1.7511e-05  1.2270e-05  1.8613e-05  1.1354e-07  5.7459e-07  0:02:14 1308
   693  1.5554e-05  1.1722e-05  1.7055e-05  1.0413e-07  5.0984e-07  0:01:47 1307

  iter  continuity  x-velocity  y-velocity           k       omega     time/iter
   694  1.3685e-05  1.1169e-05  1.5476e-05  9.4844e-08  4.4597e-07  0:01:26 1306
   695  1.1931e-05  1.0604e-05  1.3875e-05  8.5727e-08  3.8371e-07  0:01:09 1305
   696  1.0336e-05  1.0035e-05  1.2273e-05  7.6946e-08  3.2526e-07  0:00:55 1304
   697  8.9961e-06  9.4727e-06  1.0694e-05  6.8563e-08  2.7284e-07  0:05:04 1303
   698  7.9502e-06  8.9386e-06  9.1782e-06  6.0719e-08  2.2875e-07  0:04:03 1302
   699  7.2669e-06  8.4481e-06  7.8105e-06  5.3845e-08  1.9922e-07  0:03:15 1301
   700  7.1241e-06  8.0382e-06  6.7567e-06  4.8678e-08  1.9174e-07  0:02:35 1300
   701  7.4943e-06  7.8153e-06  6.3060e-06  4.4761e-08  2.0336e-07  0:02:04 1299
   702  8.1983e-06  7.7739e-06  6.2429e-06  4.1829e-08  2.3323e-07  0:01:39 1298
   703  9.3623e-06  7.8037e-06  6.5114e-06  4.0436e-08  2.7120e-07  0:01:19 1297
   704  1.0740e-05  7.9231e-06  7.0916e-06  3.9727e-08  3.1206e-07  0:01:03 1296

  iter  continuity  x-velocity  y-velocity           k       omega     time/iter
   705  1.2293e-05  8.0671e-06  7.8800e-06  3.9868e-08  3.5463e-07  0:05:10 1295
   706  1.3915e-05  8.2087e-06  8.7972e-06  4.1200e-08  3.9756e-07  0:04:08 1294
   707  1.5506e-05  8.3412e-06  9.7970e-06  4.4063e-08  4.4034e-07  0:03:18 1293
   708  1.7050e-05  8.4607e-06  1.0830e-05  4.8525e-08  4.8233e-07  0:02:38 1292
   709  1.8532e-05  8.5682e-06  1.1866e-05  5.3979e-08  5.2315e-07  0:02:06 1291
   710  1.9943e-05  8.6645e-06  1.2887e-05  5.9943e-08  5.6284e-07  0:01:41 1290
   711  2.1279e-05  8.7446e-06  1.3878e-05  6.6119e-08  6.0113e-07  0:01:21 1289
   712  2.2534e-05  8.8087e-06  1.4832e-05  7.2409e-08  6.3786e-07  0:01:05 1288
   713  2.3708e-05  8.8553e-06  1.5743e-05  7.8578e-08  6.7311e-07  0:05:09 1287
   714  2.4798e-05  8.8854e-06  1.6610e-05  8.4470e-08  7.0678e-07  0:04:07 1286
   715  2.5800e-05  8.9023e-06  1.7432e-05  9.0057e-08  7.3821e-07  0:03:17 1285

  iter  continuity  x-velocity  y-velocity           k       omega     time/iter
   716  2.6715e-05  8.9037e-06  1.8203e-05  9.5325e-08  7.6716e-07  0:02:38 1284
   717  2.7542e-05  8.8901e-06  1.8928e-05  1.0026e-07  7.9363e-07  0:02:06 1283
   718  2.8281e-05  8.8696e-06  1.9606e-05  1.0485e-07  8.1753e-07  0:01:41 1282
   719  2.8931e-05  8.8528e-06  2.0226e-05  1.0908e-07  8.3879e-07  0:01:21 1281
   720  2.9493e-05  8.8612e-06  2.0788e-05  1.1294e-07  8.5741e-07  0:01:04 1280
   721  2.9966e-05  8.9124e-06  2.1288e-05  1.1644e-07  8.7342e-07  0:05:07 1279
   722  3.0353e-05  8.9845e-06  2.1722e-05  1.1956e-07  8.8681e-07  0:04:06 1278
   723  3.0653e-05  9.0642e-06  2.2099e-05  1.2231e-07  8.9762e-07  0:03:16 1277
   724  3.0867e-05  9.1443e-06  2.2406e-05  1.2468e-07  9.0585e-07  0:02:37 1276
   725  3.0997e-05  9.2209e-06  2.2658e-05  1.2667e-07  9.1155e-07  0:02:05 1275
   726  3.1044e-05  9.2907e-06  2.2848e-05  1.2829e-07  9.1474e-07  0:01:40 1274

  iter  continuity  x-velocity  y-velocity           k       omega     time/iter
   727  3.1009e-05  9.3515e-06  2.2978e-05  1.2955e-07  9.1548e-07  0:01:20 1273
   728  3.0894e-05  9.4013e-06  2.3047e-05  1.3046e-07  9.1383e-07  0:01:04 1272
   729  3.0702e-05  9.4391e-06  2.3055e-05  1.3100e-07  9.0984e-07  0:05:05 1271
   730  3.0434e-05  9.4646e-06  2.3006e-05  1.3120e-07  9.0362e-07  0:04:04 1270
   731  3.0092e-05  9.4780e-06  2.2901e-05  1.3105e-07  8.9523e-07  0:03:15 1269
   732  2.9680e-05  9.4801e-06  2.2741e-05  1.3057e-07  8.8470e-07  0:02:36 1268
   733  2.9199e-05  9.4709e-06  2.2529e-05  1.2977e-07  8.7213e-07  0:02:05 1267
   734  2.8653e-05  9.4499e-06  2.2266e-05  1.2865e-07  8.5760e-07  0:01:40 1266
   735  2.8044e-05  9.4170e-06  2.1954e-05  1.2722e-07  8.4118e-07  0:01:20 1265
   736  2.7375e-05  9.3715e-06  2.1595e-05  1.2550e-07  8.2296e-07  0:01:04 1264
   737  2.6649e-05  9.3126e-06  2.1191e-05  1.2348e-07  8.0306e-07  0:05:04 1263

  iter  continuity  x-velocity  y-velocity           k       omega     time/iter
   738  2.5870e-05  9.2432e-06  2.0748e-05  1.2121e-07  7.8158e-07  0:04:03 1262
   739  2.5041e-05  9.1619e-06  2.0267e-05  1.1868e-07  7.5863e-07  0:03:14 1261
   740  2.4166e-05  9.0656e-06  1.9749e-05  1.1590e-07  7.3430e-07  0:02:35 1260
   741  2.3247e-05  8.9531e-06  1.9197e-05  1.1289e-07  7.0866e-07  0:02:04 1259
   742  2.2289e-05  8.8245e-06  1.8611e-05  1.0967e-07  6.8181e-07  0:01:39 1258
   743  2.1295e-05  8.6796e-06  1.7991e-05  1.0624e-07  6.5384e-07  0:05:31 1257
   744  2.0268e-05  8.5193e-06  1.7341e-05  1.0261e-07  6.2485e-07  0:04:24 1256
   745  1.9212e-05  8.3441e-06  1.6662e-05  9.8815e-08  5.9494e-07  0:03:31 1255
   746  1.8131e-05  8.1546e-06  1.5956e-05  9.4860e-08  5.6422e-07  0:02:49 1254
   747  1.7027e-05  7.9521e-06  1.5226e-05  9.0760e-08  5.3275e-07  0:02:15 1253
   748  1.5904e-05  7.7376e-06  1.4474e-05  8.6531e-08  5.0066e-07  0:01:48 1252

  iter  continuity  x-velocity  y-velocity           k       omega     time/iter
   749  1.4767e-05  7.5112e-06  1.3704e-05  8.2190e-08  4.6804e-07  0:01:26 1251
   750  1.3617e-05  7.2735e-06  1.2917e-05  7.7750e-08  4.3511e-07  0:01:09 1250
   751  1.2470e-05  7.0260e-06  1.2116e-05  7.3222e-08  4.0202e-07  0:05:05 1249
   752  1.1362e-05  6.7701e-06  1.1305e-05  6.8634e-08  3.6889e-07  0:04:04 1248
   753  1.0296e-05  6.5063e-06  1.0489e-05  6.3999e-08  3.3598e-07  0:03:15 1247
   754  9.2644e-06  6.2352e-06  9.6701e-06  5.8857e-08  3.0339e-07  0:02:36 1246
   755  8.2838e-06  5.9307e-06  8.8855e-06  5.4124e-08  2.7191e-07  0:02:04 1245
   756  7.3393e-06  5.6616e-06  8.1227e-06  4.9520e-08  2.4047e-07  0:01:40 1244
   757  6.4402e-06  5.3896e-06  7.3513e-06  4.4980e-08  2.0955e-07  0:01:20 1243
   758  5.6020e-06  5.1128e-06  6.5702e-06  4.0552e-08  1.7954e-07  0:01:04 1242
   759  4.8502e-06  4.8346e-06  5.7906e-06  3.6310e-08  1.5162e-07  0:00:51 1241

  iter  continuity  x-velocity  y-velocity           k       omega     time/iter
   760  4.2415e-06  4.5626e-06  5.0254e-06  3.2276e-08  1.2708e-07  0:04:49 1240
   761  3.7745e-06  4.3077e-06  4.2993e-06  2.8537e-08  1.0676e-07  0:03:51 1239
[...]
  9776  1.2655e-11  6.5422e-15  1.8842e-13  1.1552e-16  9.1717e-16  0:00:21  224

  iter  continuity  x-velocity  y-velocity           k       omega     time/iter
  9777  1.2637e-11  6.5147e-15  1.8787e-13  1.1526e-16  9.0061e-16  0:00:17  223
  9778  1.2646e-11  6.5159e-15  1.8804e-13  1.1585e-16  8.9177e-16  0:00:13  222
  9779  1.2666e-11  6.5590e-15  1.9089e-13  1.1655e-16  8.9309e-16  0:00:11  221
  9780  1.2694e-11  6.6193e-15  1.9298e-13  1.1738e-16  8.8465e-16  0:00:08  220
  9781  1.2643e-11  6.6135e-15  1.8933e-13  1.1535e-16  8.6012e-16  0:00:51  219
  9782  1.2653e-11  6.7969e-15  2.0168e-13  1.1481e-16  8.9270e-16  0:00:40  218
  9783  1.2556e-11  6.6689e-15  1.9562e-13  1.1601e-16  9.0918e-16  0:00:32  217
  9784  1.2515e-11  6.5853e-15  1.9273e-13  1.1696e-16  9.4759e-16  0:00:26  216
  9785  1.2504e-11  6.4909e-15  1.8784e-13  1.1593e-16  9.2950e-16  0:00:20  215
  9786  1.2521e-11  6.4752e-15  1.8706e-13  1.1598e-16  9.1887e-16  0:00:16  214
  9787  1.2556e-11  6.4982e-15  1.8930e-13  1.1595e-16  9.0494e-16  0:00:13  213

  iter  continuity  x-velocity  y-velocity           k       omega     time/iter
  9788  1.2568e-11  6.4565e-15  1.8455e-13  1.1505e-16  8.7431e-16  0:00:10  212
  9789  1.2582e-11  6.4605e-15  1.8673e-13  1.1461e-16  8.9319e-16  0:00:08  211
  9790  1.2631e-11  6.4355e-15  1.8955e-13  1.1558e-16  8.9774e-16  0:00:49  210
  9791  1.2626e-11  6.4078e-15  1.8675e-13  1.1639e-16  8.9769e-16  0:00:39  209
  9792  1.2669e-11  6.4391e-15  1.8868e-13  1.1616e-16  8.9985e-16  0:00:31  208
  9793  1.2666e-11  6.3845e-15  1.8863e-13  1.1576e-16  8.7377e-16  0:00:24  207
  9794  1.2660e-11  6.4019e-15  1.8576e-13  1.1644e-16  8.6693e-16  0:00:19  206
  9795  1.2664e-11  6.4267e-15  1.8499e-13  1.1673e-16  8.6583e-16  0:00:16  205
  9796  1.2692e-11  6.4464e-15  1.8627e-13  1.1576e-16  8.6087e-16  0:00:12  204
  9797  1.2674e-11  6.4475e-15  1.8674e-13  1.1454e-16  8.8441e-16  0:00:10  203
  9798  1.2666e-11  6.5120e-15  1.8704e-13  1.1579e-16  8.5974e-16  0:00:08  202

  iter  continuity  x-velocity  y-velocity           k       omega     time/iter
  9799  1.2669e-11  6.4708e-15  1.8729e-13  1.1689e-16  8.7178e-16  0:00:06  201
  9800  1.2658e-11  6.5117e-15  1.8795e-13  1.1678e-16  8.5463e-16  0:00:45  200
  9801  1.2635e-11  6.4778e-15  1.8505e-13  1.1641e-16  8.7073e-16  0:00:36  199
  9802  1.2614e-11  6.4466e-15  1.8468e-13  1.1464e-16  8.4578e-16  0:00:28  198
  9803  1.2589e-11  6.4213e-15  1.8151e-13  1.1525e-16  8.5092e-16  0:00:23  197
  9804  1.2570e-11  6.4034e-15  1.8011e-13  1.1516e-16  8.2145e-16  0:00:18  196
  9805  1.2589e-11  6.4636e-15  1.8461e-13  1.1636e-16  8.3800e-16  0:00:14  195
  9806  1.2599e-11  6.4845e-15  1.8778e-13  1.1535e-16  8.6080e-16  0:00:11  194
  9807  1.2540e-11  6.4595e-15  1.8586e-13  1.1731e-16  8.3721e-16  0:00:09  193
  9808  1.2529e-11  6.4455e-15  1.8497e-13  1.1530e-16  8.6039e-16  0:00:07  192
  9809  1.2526e-11  6.4590e-15  1.8536e-13  1.1662e-16  8.3857e-16  0:00:06  191

  iter  continuity  x-velocity  y-velocity           k       omega     time/iter
  9810  1.2516e-11  6.4829e-15  1.8838e-13  1.1516e-16  8.4045e-16  0:00:43  190
  9811  1.2502e-11  6.4668e-15  1.8674e-13  1.1559e-16  8.3634e-16  0:00:34  189
  9812  1.2503e-11  6.3643e-15  1.8191e-13  1.1630e-16  8.1698e-16  0:00:27  188
  9813  1.2487e-11  6.3737e-15  1.8084e-13  1.1619e-16  8.0232e-16  0:00:21  187
  9814  1.2492e-11  6.3809e-15  1.8203e-13  1.1754e-16  7.9247e-16  0:00:17  186
  9815  1.2476e-11  6.3740e-15  1.8101e-13  1.1689e-16  7.8117e-16  0:00:14  185
  9816  1.2494e-11  6.4385e-15  1.8497e-13  1.1711e-16  7.7316e-16  0:00:11  184
  9817  1.2480e-11  6.4483e-15  1.8231e-13  1.1547e-16  7.7343e-16  0:00:45  183
  9818  1.2493e-11  6.5235e-15  1.8798e-13  1.1586e-16  8.1237e-16  0:00:36  182
  9819  1.2464e-11  6.4557e-15  1.8429e-13  1.1533e-16  7.9432e-16  0:00:29  181
  9820  1.2492e-11  6.5263e-15  1.8738e-13  1.1579e-16  8.3246e-16  0:00:23  180

  iter  continuity  x-velocity  y-velocity           k       omega     time/iter
  9821  1.2509e-11  6.5892e-15  1.9039e-13  1.1501e-16  8.2350e-16  0:00:18  179
  9822  1.2467e-11  6.6679e-15  1.9542e-13  1.1449e-16  8.3204e-16  0:00:14  178
  9823  1.2473e-11  6.7024e-15  1.9532e-13  1.1696e-16  8.3149e-16  0:00:11  177
  9824  1.2396e-11  6.6879e-15  1.9312e-13  1.1584e-16  8.4659e-16  0:00:09  176
  9825  1.2394e-11  6.6225e-15  1.9311e-13  1.1790e-16  8.6929e-16  0:00:07  175
  9826  1.2401e-11  6.6232e-15  1.9262e-13  1.1606e-16  8.5739e-16  0:00:41  174
  9827  1.2345e-11  6.6291e-15  1.9289e-13  1.1623e-16  8.9017e-16  0:00:32  173
  9828  1.2329e-11  6.6445e-15  1.9466e-13  1.1594e-16  8.6904e-16  0:00:26  172
  9829  1.2329e-11  6.6484e-15  1.9345e-13  1.1614e-16  9.0202e-16  0:00:20  171
  9830  1.2294e-11  6.5816e-15  1.9017e-13  1.1750e-16  9.2195e-16  0:00:16  170
  9831  1.2292e-11  6.5247e-15  1.8864e-13  1.1582e-16  9.0315e-16  0:00:13  169

  iter  continuity  x-velocity  y-velocity           k       omega     time/iter
  9832  1.2307e-11  6.5126e-15  1.8772e-13  1.1729e-16  8.7378e-16  0:00:10  168
  9833  1.2329e-11  6.5275e-15  1.8845e-13  1.1575e-16  8.7228e-16  0:00:08  167
  9834  1.2369e-11  6.5941e-15  1.9099e-13  1.1580e-16  8.7442e-16  0:00:06  166
  9835  1.2372e-11  6.6600e-15  1.9378e-13  1.1647e-16  8.9950e-16  0:00:38  165
  9836  1.2401e-11  6.6511e-15  1.9355e-13  1.1638e-16  8.9504e-16  0:00:30  164
  9837  1.2385e-11  6.6003e-15  1.9344e-13  1.1521e-16  8.8542e-16  0:00:24  163
  9838  1.2389e-11  6.6241e-15  1.9337e-13  1.1498e-16  9.0882e-16  0:00:19  162
  9839  1.2405e-11  6.6340e-15  1.9523e-13  1.1595e-16  9.1372e-16  0:00:15  161
  9840  1.2397e-11  6.6056e-15  1.9423e-13  1.1699e-16  8.9316e-16  0:00:12  160
  9841  1.2426e-11  6.5597e-15  1.9072e-13  1.1591e-16  8.9146e-16  0:00:10  159
  9842  1.2463e-11  6.5212e-15  1.8893e-13  1.1649e-16  9.1130e-16  0:00:08  158

  iter  continuity  x-velocity  y-velocity           k       omega     time/iter
  9843  1.2474e-11  6.4663e-15  1.8641e-13  1.1697e-16  9.0888e-16  0:00:06  157
  9844  1.2487e-11  6.4909e-15  1.8804e-13  1.1572e-16  9.0207e-16  0:00:05  156
  9845  1.2448e-11  6.4426e-15  1.8640e-13  1.1668e-16  9.0663e-16  0:00:35  155
  9846  1.2462e-11  6.4015e-15  1.8527e-13  1.1616e-16  8.8794e-16  0:00:28  154
  9847  1.2458e-11  6.3682e-15  1.8286e-13  1.1553e-16  8.9355e-16  0:00:22  153
  9848  1.2450e-11  6.3936e-15  1.8360e-13  1.1737e-16  8.9350e-16  0:00:17  152
  9849  1.2463e-11  6.3257e-15  1.7956e-13  1.1619e-16  8.8553e-16  0:00:14  151
  9850  1.2483e-11  6.3236e-15  1.7957e-13  1.1595e-16  8.5206e-16  0:00:11  150
  9851  1.2491e-11  6.3336e-15  1.8111e-13  1.1630e-16  8.7516e-16  0:00:09  149
  9852  1.2472e-11  6.3526e-15  1.7841e-13  1.1596e-16  8.4272e-16  0:00:07  148
  9853  1.2518e-11  6.3060e-15  1.7913e-13  1.1472e-16  8.2632e-16  0:00:06  147

  iter  continuity  x-velocity  y-velocity           k       omega     time/iter
  9854  1.2507e-11  6.2980e-15  1.7910e-13  1.1662e-16  8.5837e-16  0:00:34  146
  9855  1.2514e-11  6.3248e-15  1.8040e-13  1.1475e-16  8.3317e-16  0:00:27  145
  9856  1.2565e-11  6.4457e-15  1.8811e-13  1.1543e-16  8.6148e-16  0:00:21  144
  9857  1.2541e-11  6.4368e-15  1.8665e-13  1.1558e-16  8.5579e-16  0:00:17  143
  9858  1.2492e-11  6.3584e-15  1.8197e-13  1.1545e-16  8.5242e-16  0:00:13  142
  9859  1.2463e-11  6.4401e-15  1.8558e-13  1.1638e-16  8.3531e-16  0:00:11  141
  9860  1.2463e-11  6.5434e-15  1.8695e-13  1.1499e-16  8.6939e-16  0:00:08  140
  9861  1.2431e-11  6.5045e-15  1.8642e-13  1.1699e-16  8.7327e-16  0:00:07  139
  9862  1.2399e-11  6.3614e-15  1.7941e-13  1.1513e-16  8.4931e-16  0:00:05  138
  9863  1.2417e-11  6.3632e-15  1.7955e-13  1.1488e-16  8.5259e-16  0:00:32  137
  9864  1.2444e-11  6.3559e-15  1.8095e-13  1.1590e-16  8.4300e-16  0:00:25  136

  iter  continuity  x-velocity  y-velocity           k       omega     time/iter
  9865  1.2453e-11  6.3720e-15  1.8448e-13  1.1681e-16  8.2727e-16  0:00:20  135
  9866  1.2420e-11  6.3656e-15  1.7983e-13  1.1634e-16  8.2101e-16  0:00:16  134
  9867  1.2446e-11  6.4006e-15  1.8480e-13  1.1534e-16  8.5374e-16  0:00:13  133
  9868  1.2452e-11  6.3448e-15  1.8105e-13  1.1413e-16  8.5194e-16  0:00:10  132
  9869  1.2479e-11  6.3519e-15  1.8279e-13  1.1574e-16  8.5825e-16  0:00:08  131
  9870  1.2485e-11  6.3045e-15  1.7786e-13  1.1585e-16  8.3286e-16  0:00:06  130
  9871  1.2483e-11  6.4111e-15  1.8222e-13  1.1748e-16  8.1055e-16  0:00:05  129
  9872  1.2466e-11  6.3523e-15  1.8097e-13  1.1628e-16  8.1910e-16  0:00:04  128
  9873  1.2486e-11  6.3653e-15  1.8121e-13  1.1598e-16  8.4263e-16  0:00:29  127
  9874  1.2475e-11  6.3320e-15  1.7901e-13  1.1542e-16  7.9760e-16  0:00:23  126
  9875  1.2474e-11  6.3211e-15  1.8079e-13  1.1696e-16  8.0583e-16  0:00:18  125

  iter  continuity  x-velocity  y-velocity           k       omega     time/iter
  9876  1.2495e-11  6.3136e-15  1.8057e-13  1.1489e-16  7.9661e-16  0:00:14  124
  9877  1.2476e-11  6.3708e-15  1.8282e-13  1.1469e-16  8.1668e-16  0:00:11  123
  9878  1.2484e-11  6.5171e-15  1.8979e-13  1.1593e-16  8.2043e-16  0:00:09  122
  9879  1.2478e-11  6.5888e-15  1.9268e-13  1.1467e-16  8.5642e-16  0:00:07  121
  9880  1.2420e-11  6.4650e-15  1.8842e-13  1.1511e-16  8.5559e-16  0:00:06  120
  9881  1.2385e-11  6.4802e-15  1.8525e-13  1.1579e-16  8.7084e-16  0:00:28  119
  9882  1.2378e-11  6.4586e-15  1.8618e-13  1.1554e-16  8.2410e-16  0:00:22  118
  9883  1.2400e-11  6.5341e-15  1.8682e-13  1.1604e-16  8.4924e-16  0:00:18  117
  9884  1.2385e-11  6.5062e-15  1.8398e-13  1.1665e-16  8.2106e-16  0:00:14  116
  9885  1.2416e-11  6.5395e-15  1.8868e-13  1.1755e-16  8.2840e-16  0:00:11  115
  9886  1.2468e-11  6.7789e-15  2.0164e-13  1.1495e-16  8.5872e-16  0:00:09  114

  iter  continuity  x-velocity  y-velocity           k       omega     time/iter
  9887  1.2451e-11  6.7042e-15  1.9996e-13  1.1573e-16  8.6392e-16  0:00:07  113
  9888  1.2425e-11  6.6265e-15  1.9609e-13  1.1582e-16  8.8772e-16  0:00:06  112
  9889  1.2432e-11  6.5945e-15  1.9349e-13  1.1594e-16  8.9253e-16  0:00:04  111
  9890  1.2406e-11  6.5585e-15  1.9263e-13  1.1693e-16  8.8917e-16  0:00:26  110
  9891  1.2423e-11  6.5153e-15  1.8664e-13  1.1570e-16  8.8090e-16  0:00:20  109
  9892  1.2449e-11  6.5189e-15  1.8960e-13  1.1609e-16  8.9400e-16  0:00:16  108
  9893  1.2438e-11  6.5370e-15  1.9094e-13  1.1499e-16  8.6300e-16  0:00:13  107
  9894  1.2433e-11  6.5164e-15  1.9352e-13  1.1568e-16  8.5503e-16  0:00:10  106
  9895  1.2437e-11  6.5107e-15  1.8986e-13  1.1548e-16  8.7248e-16  0:00:08  105
  9896  1.2419e-11  6.4402e-15  1.8598e-13  1.1570e-16  8.6400e-16  0:00:06  104
  9897  1.2443e-11  6.4733e-15  1.8768e-13  1.1577e-16  8.4392e-16  0:00:05  103

  iter  continuity  x-velocity  y-velocity           k       omega     time/iter
  9898  1.2419e-11  6.4996e-15  1.8482e-13  1.1632e-16  8.4365e-16  0:00:04  102
  9899  1.2402e-11  6.4413e-15  1.8687e-13  1.1512e-16  8.4502e-16  0:00:03  101
  9900  1.2420e-11  6.4742e-15  1.8875e-13  1.1583e-16  8.3010e-16  0:00:22  100
  9901  1.2399e-11  6.4298e-15  1.8591e-13  1.1605e-16  8.1178e-16  0:00:18   99
  9902  1.2428e-11  6.5153e-15  1.8594e-13  1.1473e-16  8.1818e-16  0:00:14   98
  9903  1.2402e-11  6.4910e-15  1.8664e-13  1.1634e-16  8.2014e-16  0:00:11   97
  9904  1.2406e-11  6.4152e-15  1.8282e-13  1.1520e-16  7.9692e-16  0:00:09   96
  9905  1.2422e-11  6.3624e-15  1.8057e-13  1.1609e-16  8.2363e-16  0:00:07   95
  9906  1.2398e-11  6.3426e-15  1.8155e-13  1.1534e-16  8.1976e-16  0:00:06   94
  9907  1.2379e-11  6.3748e-15  1.7921e-13  1.1617e-16  8.0744e-16  0:00:04   93
  9908  1.2381e-11  6.3153e-15  1.7892e-13  1.1611e-16  8.1164e-16  0:00:03   92

  iter  continuity  x-velocity  y-velocity           k       omega     time/iter
  9909  1.2390e-11  6.2750e-15  1.7745e-13  1.1519e-16  7.9045e-16  0:00:21   91
  9910  1.2399e-11  6.2715e-15  1.7594e-13  1.1483e-16  7.9984e-16  0:00:17   90
  9911  1.2425e-11  6.3179e-15  1.8106e-13  1.1569e-16  7.7627e-16  0:00:13   89
  9912  1.2442e-11  6.2963e-15  1.8220e-13  1.1513e-16  7.9568e-16  0:00:10   88
  9913  1.2407e-11  6.2965e-15  1.7822e-13  1.1690e-16  7.9318e-16  0:00:08   87
  9914  1.2391e-11  6.2967e-15  1.7961e-13  1.1588e-16  7.7428e-16  0:00:06   86
  9915  1.2416e-11  6.3468e-15  1.8206e-13  1.1527e-16  7.8425e-16  0:00:05   85
  9916  1.2389e-11  6.3321e-15  1.7804e-13  1.1582e-16  7.9048e-16  0:00:04   84
  9917  1.2397e-11  6.3700e-15  1.7962e-13  1.1594e-16  7.6449e-16  0:00:03   83
  9918  1.2403e-11  6.3454e-15  1.8060e-13  1.1596e-16  7.6645e-16  0:00:19   82
  9919  1.2413e-11  6.3338e-15  1.8001e-13  1.1610e-16  7.7361e-16  0:00:15   81

  iter  continuity  x-velocity  y-velocity           k       omega     time/iter
  9920  1.2409e-11  6.2856e-15  1.7721e-13  1.1559e-16  7.7680e-16  0:00:12   80
  9921  1.2420e-11  6.2958e-15  1.7876e-13  1.1611e-16  7.6818e-16  0:00:09   79
  9922  1.2416e-11  6.2513e-15  1.7567e-13  1.1596e-16  7.6500e-16  0:00:07   78
  9923  1.2449e-11  6.3113e-15  1.7944e-13  1.1551e-16  7.8119e-16  0:00:06   77
  9924  1.2457e-11  6.3130e-15  1.8079e-13  1.1489e-16  7.8663e-16  0:00:05   76
  9925  1.2462e-11  6.3198e-15  1.8332e-13  1.1646e-16  8.2635e-16  0:00:04   75
  9926  1.2469e-11  6.3965e-15  1.8516e-13  1.1586e-16  8.0919e-16  0:00:03   74
  9927  1.2433e-11  6.3535e-15  1.8307e-13  1.1521e-16  7.9440e-16  0:00:17   73
  9928  1.2436e-11  6.3689e-15  1.8385e-13  1.1630e-16  7.9524e-16  0:00:13   72
  9929  1.2437e-11  6.4071e-15  1.8478e-13  1.1600e-16  7.7994e-16  0:00:10   71
  9930  1.2479e-11  6.4900e-15  1.8904e-13  1.1739e-16  8.2928e-16  0:00:08   70

  iter  continuity  x-velocity  y-velocity           k       omega     time/iter
  9931  1.2459e-11  6.4125e-15  1.8355e-13  1.1587e-16  8.0509e-16  0:00:07   69
  9932  1.2460e-11  6.4282e-15  1.8492e-13  1.1529e-16  8.3871e-16  0:00:05   68
  9933  1.2425e-11  6.3165e-15  1.7940e-13  1.1541e-16  8.1500e-16  0:00:04   67
  9934  1.2416e-11  6.3198e-15  1.7956e-13  1.1722e-16  8.0240e-16  0:00:03   66
  9935  1.2418e-11  6.3016e-15  1.7876e-13  1.1605e-16  8.1240e-16  0:00:03   65
  9936  1.2419e-11  6.2960e-15  1.7699e-13  1.1661e-16  7.8085e-16  0:00:02   64
  9937  1.2419e-11  6.2773e-15  1.7661e-13  1.1699e-16  7.5531e-16  0:00:14   63
  9938  1.2425e-11  6.2511e-15  1.7783e-13  1.1670e-16  7.7444e-16  0:00:11   62
  9939  1.2413e-11  6.2578e-15  1.7639e-13  1.1470e-16  7.5350e-16  0:00:09   61
  9940  1.2423e-11  6.3079e-15  1.8208e-13  1.1674e-16  7.7531e-16  0:00:07   60
  9941  1.2422e-11  6.3145e-15  1.7897e-13  1.1510e-16  7.7671e-16  0:00:05   59

  iter  continuity  x-velocity  y-velocity           k       omega     time/iter
  9942  1.2415e-11  6.3407e-15  1.8051e-13  1.1627e-16  7.7313e-16  0:00:04   58
  9943  1.2404e-11  6.3175e-15  1.7946e-13  1.1573e-16  7.8311e-16  0:00:03   57
  9944  1.2454e-11  6.4240e-15  1.8538e-13  1.1701e-16  8.3935e-16  0:00:03   56
  9945  1.2435e-11  6.5005e-15  1.8902e-13  1.1483e-16  8.2553e-16  0:00:02   55
  9946  1.2377e-11  6.4916e-15  1.8566e-13  1.1565e-16  8.0437e-16  0:00:12   54
  9947  1.2359e-11  6.4811e-15  1.8352e-13  1.1647e-16  8.3709e-16  0:00:10   53
  9948  1.2363e-11  6.4382e-15  1.8405e-13  1.1650e-16  8.2469e-16  0:00:08   52
  9949  1.2354e-11  6.4515e-15  1.8261e-13  1.1628e-16  8.0670e-16  0:00:06   51
  9950  1.2336e-11  6.3737e-15  1.7788e-13  1.1694e-16  7.9701e-16  0:00:05   50
  9951  1.2342e-11  6.3986e-15  1.8169e-13  1.1490e-16  8.0840e-16  0:00:04   49
  9952  1.2359e-11  6.4223e-15  1.8170e-13  1.1569e-16  7.7926e-16  0:00:03   48

  iter  continuity  x-velocity  y-velocity           k       omega     time/iter
  9953  1.2353e-11  6.3628e-15  1.8087e-13  1.1647e-16  8.1941e-16  0:00:02   47
  9954  1.2367e-11  6.3944e-15  1.8002e-13  1.1799e-16  7.7878e-16  0:00:02   46
  9955  1.2408e-11  6.3982e-15  1.8505e-13  1.1572e-16  8.0378e-16  0:00:01   45
  9956  1.2373e-11  6.3513e-15  1.8165e-13  1.1518e-16  7.8178e-16  0:00:10   44
  9957  1.2361e-11  6.3199e-15  1.8176e-13  1.1541e-16  7.8297e-16  0:00:08   43
  9958  1.2359e-11  6.2730e-15  1.7904e-13  1.1512e-16  7.5951e-16  0:00:06   42
  9959  1.2364e-11  6.3083e-15  1.7741e-13  1.1617e-16  7.5184e-16  0:00:05   41
  9960  1.2381e-11  6.3437e-15  1.8364e-13  1.1590e-16  7.7907e-16  0:00:04   40
  9961  1.2361e-11  6.3431e-15  1.8286e-13  1.1639e-16  7.8160e-16  0:00:03   39
  9962  1.2361e-11  6.3270e-15  1.8155e-13  1.1443e-16  7.4630e-16  0:00:02   38
  9963  1.2373e-11  6.3699e-15  1.8280e-13  1.1550e-16  7.9018e-16  0:00:02   37

  iter  continuity  x-velocity  y-velocity           k       omega     time/iter
  9964  1.2348e-11  6.3613e-15  1.8345e-13  1.1605e-16  7.8940e-16  0:00:01   36
  9965  1.2357e-11  6.4297e-15  1.8426e-13  1.1710e-16  7.6804e-16  0:00:01   35
  9966  1.2333e-11  6.4275e-15  1.8329e-13  1.1683e-16  8.0244e-16  0:00:08   34
  9967  1.2338e-11  6.3874e-15  1.7807e-13  1.1707e-16  8.0102e-16  0:00:06   33
  9968  1.2347e-11  6.4065e-15  1.8264e-13  1.1568e-16  7.7743e-16  0:00:05   32
  9969  1.2327e-11  6.3815e-15  1.8036e-13  1.1625e-16  7.5390e-16  0:00:04   31
  9970  1.2334e-11  6.3293e-15  1.7910e-13  1.1637e-16  7.6197e-16  0:00:03   30
  9971  1.2349e-11  6.3138e-15  1.8010e-13  1.1648e-16  7.6288e-16  0:00:02   29
  9972  1.2381e-11  6.3230e-15  1.8025e-13  1.1613e-16  8.1447e-16  0:00:02   28
  9973  1.2370e-11  6.3889e-15  1.8471e-13  1.1480e-16  8.0194e-16  0:00:01   27
  9974  1.2356e-11  6.4122e-15  1.8423e-13  1.1610e-16  7.7980e-16  0:00:01   26

  iter  continuity  x-velocity  y-velocity           k       omega     time/iter
  9975  1.2349e-11  6.3992e-15  1.8711e-13  1.1655e-16  7.6108e-16  0:00:06   25
  9976  1.2337e-11  6.3931e-15  1.8446e-13  1.1528e-16  7.8261e-16  0:00:04   24
  9977  1.2356e-11  6.3970e-15  1.8389e-13  1.1680e-16  7.6725e-16  0:00:03   23
  9978  1.2407e-11  6.4764e-15  1.8703e-13  1.1656e-16  7.9538e-16  0:00:03   22
  9979  1.2388e-11  6.4366e-15  1.8324e-13  1.1658e-16  7.8953e-16  0:00:02   21
  9980  1.2367e-11  6.3920e-15  1.8238e-13  1.1659e-16  8.2321e-16  0:00:02   20
  9981  1.2334e-11  6.5541e-15  1.8714e-13  1.1577e-16  8.0552e-16  0:00:01   19
  9982  1.2286e-11  6.5596e-15  1.8667e-13  1.1531e-16  7.8897e-16  0:00:01   18
  9983  1.2299e-11  6.4793e-15  1.8491e-13  1.1572e-16  8.0944e-16  0:00:01   17
  9984  1.2293e-11  6.4931e-15  1.8435e-13  1.1616e-16  8.1834e-16  0:00:04   16
  9985  1.2284e-11  6.4667e-15  1.8575e-13  1.1681e-16  8.3835e-16  0:00:03   15

  iter  continuity  x-velocity  y-velocity           k       omega     time/iter
  9986  1.2268e-11  6.4269e-15  1.8401e-13  1.1622e-16  8.3228e-16  0:00:02   14
  9987  1.2275e-11  6.4471e-15  1.8290e-13  1.1522e-16  8.3850e-16  0:00:02   13
  9988  1.2303e-11  6.4691e-15  1.8400e-13  1.1612e-16  8.6112e-16  0:00:01   12
  9989  1.2312e-11  6.4544e-15  1.8562e-13  1.1651e-16  8.5430e-16  0:00:01   11
  9990  1.2319e-11  6.4402e-15  1.8401e-13  1.1605e-16  8.4071e-16  0:00:01   10
  9991  1.2338e-11  6.4913e-15  1.8584e-13  1.1657e-16  8.4454e-16  0:00:00    9
  9992  1.2395e-11  6.5285e-15  1.8743e-13  1.1722e-16  8.3268e-16  0:00:00    8
  9993  1.2369e-11  6.5214e-15  1.8529e-13  1.1710e-16  8.2869e-16  0:00:00    7
  9994  1.2406e-11  6.5115e-15  1.8613e-13  1.1521e-16  8.5060e-16  0:00:01    6
  9995  1.2377e-11  6.4440e-15  1.8107e-13  1.1649e-16  8.6417e-16  0:00:01    5
  9996  1.2364e-11  6.4086e-15  1.8294e-13  1.1539e-16  8.4103e-16  0:00:01    4

  iter  continuity  x-velocity  y-velocity           k       omega     time/iter
  9997  1.2373e-11  6.4612e-15  1.8361e-13  1.1593e-16  8.4744e-16  0:00:00    3
  9998  1.2345e-11  6.4300e-15  1.8118e-13  1.1607e-16  8.3150e-16  0:00:00    2
  9999  1.2370e-11  6.4439e-15  1.8504e-13  1.1612e-16  8.3869e-16  0:00:00    1
 10000  1.2335e-11  6.4537e-15  1.8599e-13  1.1717e-16  8.2906e-16  0:00:00    0

Calculation complete.
